<routes xmlns:xsi="http://www.w3.org/2001/XMLSchema-instance" xsi:noNamespaceSchemaLocation="http://sumo.dlr.de/xsd/routes_file.xsd">
		<vType accel="2.0" decel="4.5" id="pkw" length="5.0" maxSpeed="11.111" minGap="2.5" width="2.0" jmIgnoreJunctionFoeProb="0.05" />
		<vehicle depart="0" id="0" type="pkw">
			<route edges="road_4_0_1 road_4_1_1 road_4_2_0" />
		</vehicle>
		<vehicle depart="0" id="1" type="pkw">
			<route edges="road_0_1_0 road_1_1_0 road_2_1_0 road_3_1_3" />
		</vehicle>
		<vehicle depart="0" id="2" type="pkw">
			<route edges="road_5_4_2 road_4_4_2 road_3_4_2 road_2_4_2 road_1_4_1" />
		</vehicle>
		<vehicle depart="0" id="3" type="pkw">
			<route edges="road_0_2_0 road_1_2_3 road_1_1_3" />
		</vehicle>
		<vehicle depart="0" id="4" type="pkw">
			<route edges="road_5_2_2 road_4_2_2 road_3_2_2 road_2_2_2 road_1_2_1 road_1_3_1 road_1_4_0 road_2_4_3 road_2_3_3 road_2_2_3 road_2_1_3" />
		</vehicle>
		<vehicle depart="0" id="5" type="pkw">
			<route edges="road_1_0_1 road_1_1_1 road_1_2_1 road_1_3_1 road_1_4_1" />
		</vehicle>
		<vehicle depart="0" id="6" type="pkw">
			<route edges="road_1_5_3 road_1_4_3 road_1_3_3 road_1_2_2" />
		</vehicle>
		<vehicle depart="0" id="7" type="pkw">
			<route edges="road_0_4_0 road_1_4_0 road_2_4_0 road_3_4_3 road_3_3_2 road_2_3_1" />
		</vehicle>
		<vehicle depart="0" id="8" type="pkw">
			<route edges="road_5_3_2 road_4_3_1 road_4_4_0" />
		</vehicle>
		<vehicle depart="4" id="9" type="pkw">
			<route edges="road_0_4_0 road_1_4_0 road_2_4_0 road_3_4_0 road_4_4_0" />
		</vehicle>
		<vehicle depart="7" id="10" type="pkw">
			<route edges="road_5_4_2 road_4_4_2 road_3_4_2 road_2_4_1" />
		</vehicle>
		<vehicle depart="8" id="11" type="pkw">
			<route edges="road_0_4_0 road_1_4_1" />
		</vehicle>
		<vehicle depart="10" id="12" type="pkw">
			<route edges="road_0_1_0 road_1_1_0 road_2_1_0 road_3_1_3" />
		</vehicle>
		<vehicle depart="12" id="13" type="pkw">
			<route edges="road_0_4_0 road_1_4_0 road_2_4_3 road_2_3_0 road_3_3_0 road_4_3_0" />
		</vehicle>
		<vehicle depart="13" id="14" type="pkw">
			<route edges="road_4_0_1 road_4_1_2 road_3_1_2 road_2_1_2 road_1_1_3" />
		</vehicle>
		<vehicle depart="13" id="15" type="pkw">
			<route edges="road_5_3_2 road_4_3_1 road_4_4_1" />
		</vehicle>
		<vehicle depart="14" id="16" type="pkw">
			<route edges="road_5_4_2 road_4_4_3 road_4_3_2 road_3_3_2 road_2_3_2 road_1_3_2" />
		</vehicle>
		<vehicle depart="16" id="17" type="pkw">
			<route edges="road_0_4_0 road_1_4_0 road_2_4_0 road_3_4_3 road_3_3_3 road_3_2_2 road_2_2_2 road_1_2_2" />
		</vehicle>
		<vehicle depart="20" id="18" type="pkw">
			<route edges="road_0_1_0 road_1_1_0 road_2_1_0 road_3_1_0 road_4_1_3" />
		</vehicle>
		<vehicle depart="20" id="19" type="pkw">
			<route edges="road_0_4_0 road_1_4_3 road_1_3_0 road_2_3_0 road_3_3_0 road_4_3_0" />
		</vehicle>
		<vehicle depart="21" id="20" type="pkw">
			<route edges="road_5_4_2 road_4_4_2 road_3_4_1" />
		</vehicle>
		<vehicle depart="23" id="21" type="pkw">
			<route edges="road_1_0_1 road_1_1_1 road_1_2_1 road_1_3_1 road_1_4_1" />
		</vehicle>
		<vehicle depart="23" id="22" type="pkw">
			<route edges="road_1_5_3 road_1_4_3 road_1_3_0 road_2_3_1 road_2_4_1" />
		</vehicle>
		<vehicle depart="24" id="23" type="pkw">
			<route edges="road_0_4_0 road_1_4_3 road_1_3_3 road_1_2_3 road_1_1_2" />
		</vehicle>
		<vehicle depart="26" id="24" type="pkw">
			<route edges="road_4_0_1 road_4_1_1 road_4_2_1 road_4_3_1 road_4_4_1" />
		</vehicle>
		<vehicle depart="26" id="25" type="pkw">
			<route edges="road_5_3_2 road_4_3_1 road_4_4_1" />
		</vehicle>
		<vehicle depart="28" id="26" type="pkw">
			<route edges="road_5_4_2 road_4_4_2 road_3_4_2 road_2_4_1" />
		</vehicle>
		<vehicle depart="28" id="27" type="pkw">
			<route edges="road_0_4_0 road_1_4_3 road_1_3_3 road_1_2_2" />
		</vehicle>
		<vehicle depart="30" id="28" type="pkw">
			<route edges="road_0_1_0 road_1_1_3" />
		</vehicle>
		<vehicle depart="32" id="29" type="pkw">
			<route edges="road_0_4_0 road_1_4_0 road_2_4_1" />
		</vehicle>
		<vehicle depart="35" id="30" type="pkw">
			<route edges="road_5_4_2 road_4_4_2 road_3_4_2 road_2_4_3 road_2_3_3 road_2_2_3 road_2_1_3" />
		</vehicle>
		<vehicle depart="36" id="31" type="pkw">
			<route edges="road_0_4_0 road_1_4_3 road_1_3_2" />
		</vehicle>
		<vehicle depart="37" id="32" type="pkw">
			<route edges="road_0_2_0 road_1_2_0 road_2_2_3 road_2_1_2 road_1_1_1 road_1_2_1 road_1_3_1 road_1_4_1" />
		</vehicle>
		<vehicle depart="37" id="33" type="pkw">
			<route edges="road_5_2_2 road_4_2_2 road_3_2_2 road_2_2_1 road_2_3_1 road_2_4_1" />
		</vehicle>
		<vehicle depart="39" id="34" type="pkw">
			<route edges="road_4_0_1 road_4_1_1 road_4_2_1 road_4_3_1 road_4_4_0" />
		</vehicle>
		<vehicle depart="39" id="35" type="pkw">
			<route edges="road_5_3_2 road_4_3_2 road_3_3_2 road_2_3_2 road_1_3_3 road_1_2_3 road_1_1_3" />
		</vehicle>
		<vehicle depart="40" id="36" type="pkw">
			<route edges="road_0_1_0 road_1_1_0 road_2_1_3" />
		</vehicle>
		<vehicle depart="40" id="37" type="pkw">
			<route edges="road_0_4_0 road_1_4_0 road_2_4_0 road_3_4_0 road_4_4_0" />
		</vehicle>
		<vehicle depart="42" id="38" type="pkw">
			<route edges="road_5_4_2 road_4_4_1" />
		</vehicle>
		<vehicle depart="44" id="39" type="pkw">
			<route edges="road_0_4_0 road_1_4_0 road_2_4_3 road_2_3_3 road_2_2_3 road_2_1_3" />
		</vehicle>
		<vehicle depart="46" id="40" type="pkw">
			<route edges="road_1_0_1 road_1_1_0 road_2_1_0 road_3_1_0 road_4_1_0" />
		</vehicle>
		<vehicle depart="46" id="41" type="pkw">
			<route edges="road_1_5_3 road_1_4_3 road_1_3_3 road_1_2_3 road_1_1_0 road_2_1_0 road_3_1_3" />
		</vehicle>
		<vehicle depart="48" id="42" type="pkw">
			<route edges="road_0_4_0 road_1_4_0 road_2_4_1" />
		</vehicle>
		<vehicle depart="49" id="43" type="pkw">
			<route edges="road_5_4_2 road_4_4_2 road_3_4_2 road_2_4_1" />
		</vehicle>
		<vehicle depart="50" id="44" type="pkw">
			<route edges="road_0_1_0 road_1_1_1 road_1_2_0 road_2_2_0 road_3_2_0 road_4_2_0" />
		</vehicle>
		<vehicle depart="52" id="45" type="pkw">
			<route edges="road_4_0_1 road_4_1_2 road_3_1_2 road_2_1_2 road_1_1_2" />
		</vehicle>
		<vehicle depart="52" id="46" type="pkw">
			<route edges="road_0_4_0 road_1_4_0 road_2_4_1" />
		</vehicle>
		<vehicle depart="52" id="47" type="pkw">
			<route edges="road_5_3_2 road_4_3_2 road_3_3_1 road_3_4_0 road_4_4_0" />
		</vehicle>
		<vehicle depart="56" id="48" type="pkw">
			<route edges="road_5_4_2 road_4_4_1" />
		</vehicle>
		<vehicle depart="56" id="49" type="pkw">
			<route edges="road_0_4_0 road_1_4_0 road_2_4_0 road_3_4_3 road_3_3_2 road_2_3_3 road_2_2_2 road_1_2_2" />
		</vehicle>
		<vehicle depart="60" id="50" type="pkw">
			<route edges="road_0_1_0 road_1_1_1 road_1_2_0 road_2_2_0 road_3_2_0 road_4_2_0" />
		</vehicle>
		<vehicle depart="60" id="51" type="pkw">
			<route edges="road_0_4_0 road_1_4_0 road_2_4_0 road_3_4_0 road_4_4_0" />
		</vehicle>
		<vehicle depart="63" id="52" type="pkw">
			<route edges="road_5_4_2 road_4_4_2 road_3_4_2 road_2_4_2 road_1_4_1" />
		</vehicle>
		<vehicle depart="64" id="53" type="pkw">
			<route edges="road_0_4_0 road_1_4_0 road_2_4_0 road_3_4_0 road_4_4_0" />
		</vehicle>
		<vehicle depart="65" id="54" type="pkw">
			<route edges="road_4_0_1 road_4_1_1 road_4_2_1 road_4_3_0" />
		</vehicle>
		<vehicle depart="65" id="55" type="pkw">
			<route edges="road_5_3_2 road_4_3_2 road_3_3_1 road_3_4_1" />
		</vehicle>
		<vehicle depart="68" id="56" type="pkw">
			<route edges="road_0_4_0 road_1_4_3 road_1_3_3 road_1_2_2" />
		</vehicle>
		<vehicle depart="69" id="57" type="pkw">
			<route edges="road_1_0_1 road_1_1_1 road_1_2_1 road_1_3_1 road_1_4_1" />
		</vehicle>
		<vehicle depart="69" id="58" type="pkw">
			<route edges="road_1_5_3 road_1_4_3 road_1_3_2" />
		</vehicle>
		<vehicle depart="70" id="59" type="pkw">
			<route edges="road_0_1_0 road_1_1_0 road_2_1_0 road_3_1_1 road_3_2_1 road_3_3_1 road_3_4_1" />
		</vehicle>
		<vehicle depart="70" id="60" type="pkw">
			<route edges="road_5_4_2 road_4_4_1" />
		</vehicle>
		<vehicle depart="72" id="61" type="pkw">
			<route edges="road_0_4_0 road_1_4_0 road_2_4_3 road_2_3_3 road_2_2_3 road_2_1_3" />
		</vehicle>
		<vehicle depart="74" id="62" type="pkw">
			<route edges="road_0_2_0 road_1_2_0 road_2_2_0 road_3_2_0 road_4_2_0" />
		</vehicle>
		<vehicle depart="74" id="63" type="pkw">
			<route edges="road_5_2_2 road_4_2_2 road_3_2_2 road_2_2_2 road_1_2_2" />
		</vehicle>
		<vehicle depart="76" id="64" type="pkw">
			<route edges="road_0_4_0 road_1_4_0 road_2_4_0 road_3_4_0 road_4_4_0" />
		</vehicle>
		<vehicle depart="77" id="65" type="pkw">
			<route edges="road_5_4_2 road_4_4_2 road_3_4_2 road_2_4_1" />
		</vehicle>
		<vehicle depart="78" id="66" type="pkw">
			<route edges="road_4_0_1 road_4_1_0" />
		</vehicle>
		<vehicle depart="78" id="67" type="pkw">
			<route edges="road_5_3_2 road_4_3_2 road_3_3_2 road_2_3_2 road_1_3_1 road_1_4_0 road_2_4_0 road_3_4_3" />
		</vehicle>
		<vehicle depart="80" id="68" type="pkw">
			<route edges="road_0_1_0 road_1_1_0 road_2_1_3" />
		</vehicle>
		<vehicle depart="80" id="69" type="pkw">
			<route edges="road_0_4_0 road_1_4_1" />
		</vehicle>
		<vehicle depart="84" id="70" type="pkw">
			<route edges="road_5_4_2 road_4_4_2 road_3_4_1" />
		</vehicle>
		<vehicle depart="84" id="71" type="pkw">
			<route edges="road_0_4_0 road_1_4_0 road_2_4_3 road_2_3_2 road_1_3_2" />
		</vehicle>
		<vehicle depart="88" id="72" type="pkw">
			<route edges="road_0_4_0 road_1_4_0 road_2_4_3 road_2_3_0 road_3_3_1 road_3_4_0 road_4_4_0" />
		</vehicle>
		<vehicle depart="90" id="73" type="pkw">
			<route edges="road_0_1_0 road_1_1_0 road_2_1_3" />
		</vehicle>
		<vehicle depart="91" id="74" type="pkw">
			<route edges="road_4_0_1 road_4_1_1 road_4_2_1 road_4_3_0" />
		</vehicle>
		<vehicle depart="91" id="75" type="pkw">
			<route edges="road_5_4_2 road_4_4_1" />
		</vehicle>
		<vehicle depart="91" id="76" type="pkw">
			<route edges="road_5_3_2 road_4_3_2 road_3_3_1 road_3_4_1" />
		</vehicle>
		<vehicle depart="92" id="77" type="pkw">
			<route edges="road_1_0_1 road_1_1_1 road_1_2_0 road_2_2_0 road_3_2_0 road_4_2_0" />
		</vehicle>
		<vehicle depart="92" id="78" type="pkw">
			<route edges="road_1_5_3 road_1_4_3 road_1_3_2" />
		</vehicle>
		<vehicle depart="92" id="79" type="pkw">
			<route edges="road_0_4_0 road_1_4_3 road_1_3_3 road_1_2_3 road_1_1_3" />
		</vehicle>
		<vehicle depart="96" id="80" type="pkw">
			<route edges="road_0_4_0 road_1_4_3 road_1_3_3 road_1_2_3 road_1_1_2" />
		</vehicle>
		<vehicle depart="98" id="81" type="pkw">
			<route edges="road_5_4_2 road_4_4_2 road_3_4_3 road_3_3_3 road_3_2_2 road_2_2_3 road_2_1_3" />
		</vehicle>
		<vehicle depart="100" id="82" type="pkw">
			<route edges="road_0_1_0 road_1_1_0 road_2_1_0 road_3_1_1 road_3_2_0 road_4_2_0" />
		</vehicle>
		<vehicle depart="100" id="83" type="pkw">
			<route edges="road_0_4_0 road_1_4_0 road_2_4_0 road_3_4_1" />
		</vehicle>
		<vehicle depart="104" id="84" type="pkw">
			<route edges="road_4_0_1 road_4_1_0" />
		</vehicle>
		<vehicle depart="104" id="85" type="pkw">
			<route edges="road_0_4_0 road_1_4_0 road_2_4_0 road_3_4_0 road_4_4_0" />
		</vehicle>
		<vehicle depart="104" id="86" type="pkw">
			<route edges="road_5_3_2 road_4_3_2 road_3_3_1 road_3_4_0 road_4_4_3" />
		</vehicle>
		<vehicle depart="105" id="87" type="pkw">
			<route edges="road_5_4_2 road_4_4_2 road_3_4_2 road_2_4_1" />
		</vehicle>
		<vehicle depart="108" id="88" type="pkw">
			<route edges="road_0_4_0 road_1_4_0 road_2_4_0 road_3_4_0 road_4_4_3 road_4_3_3 road_4_2_3 road_4_1_2 road_3_1_1 road_3_2_1 road_3_3_1 road_3_4_2 road_2_4_2 road_1_4_1" />
		</vehicle>
		<vehicle depart="110" id="89" type="pkw">
			<route edges="road_0_1_0 road_1_1_0 road_2_1_3" />
		</vehicle>
		<vehicle depart="111" id="90" type="pkw">
			<route edges="road_0_2_0 road_1_2_1 road_1_3_1 road_1_4_0 road_2_4_0 road_3_4_0 road_4_4_0" />
		</vehicle>
		<vehicle depart="111" id="91" type="pkw">
			<route edges="road_5_2_2 road_4_2_2 road_3_2_2 road_2_2_1 road_2_3_1 road_2_4_2 road_1_4_2" />
		</vehicle>
		<vehicle depart="112" id="92" type="pkw">
			<route edges="road_5_4_2 road_4_4_2 road_3_4_2 road_2_4_2 road_1_4_2" />
		</vehicle>
		<vehicle depart="112" id="93" type="pkw">
			<route edges="road_0_4_0 road_1_4_1" />
		</vehicle>
		<vehicle depart="115" id="94" type="pkw">
			<route edges="road_1_0_1 road_1_1_0 road_2_1_0 road_3_1_3" />
		</vehicle>
		<vehicle depart="115" id="95" type="pkw">
			<route edges="road_1_5_3 road_1_4_3 road_1_3_2" />
		</vehicle>
		<vehicle depart="116" id="96" type="pkw">
			<route edges="road_0_4_0 road_1_4_0 road_2_4_0 road_3_4_1" />
		</vehicle>
		<vehicle depart="117" id="97" type="pkw">
			<route edges="road_4_0_1 road_4_1_2 road_3_1_3" />
		</vehicle>
		<vehicle depart="117" id="98" type="pkw">
			<route edges="road_5_3_2 road_4_3_1 road_4_4_0" />
		</vehicle>
		<vehicle depart="119" id="99" type="pkw">
			<route edges="road_5_4_2 road_4_4_2 road_3_4_2 road_2_4_1" />
		</vehicle>
		<vehicle depart="120" id="100" type="pkw">
			<route edges="road_0_1_0 road_1_1_0 road_2_1_0 road_3_1_0 road_4_1_3" />
		</vehicle>
		<vehicle depart="120" id="101" type="pkw">
			<route edges="road_0_4_0 road_1_4_0 road_2_4_0 road_3_4_3 road_3_3_3 road_3_2_3 road_3_1_2 road_2_1_3" />
		</vehicle>
		<vehicle depart="124" id="102" type="pkw">
			<route edges="road_0_4_0 road_1_4_3 road_1_3_3 road_1_2_3 road_1_1_0 road_2_1_3" />
		</vehicle>
		<vehicle depart="126" id="103" type="pkw">
			<route edges="road_5_4_2 road_4_4_2 road_3_4_2 road_2_4_2 road_1_4_2" />
		</vehicle>
		<vehicle depart="128" id="104" type="pkw">
			<route edges="road_0_4_0 road_1_4_0 road_2_4_0 road_3_4_0 road_4_4_0" />
		</vehicle>
		<vehicle depart="130" id="105" type="pkw">
			<route edges="road_4_0_1 road_4_1_1 road_4_2_0" />
		</vehicle>
		<vehicle depart="130" id="106" type="pkw">
			<route edges="road_0_1_0 road_1_1_3" />
		</vehicle>
		<vehicle depart="130" id="107" type="pkw">
			<route edges="road_5_3_2 road_4_3_3 road_4_2_3 road_4_1_2 road_3_1_2 road_2_1_2 road_1_1_1 road_1_2_1 road_1_3_1 road_1_4_1" />
		</vehicle>
		<vehicle depart="132" id="108" type="pkw">
			<route edges="road_0_4_0 road_1_4_0 road_2_4_0 road_3_4_3 road_3_3_0 road_4_3_0" />
		</vehicle>
		<vehicle depart="133" id="109" type="pkw">
			<route edges="road_5_4_2 road_4_4_2 road_3_4_2 road_2_4_2 road_1_4_1" />
		</vehicle>
		<vehicle depart="136" id="110" type="pkw">
			<route edges="road_0_4_0 road_1_4_0 road_2_4_0 road_3_4_3 road_3_3_3 road_3_2_2 road_2_2_2 road_1_2_1 road_1_3_1" />
		</vehicle>
		<vehicle depart="138" id="111" type="pkw">
			<route edges="road_1_0_1 road_1_1_1 road_1_2_1 road_1_3_1 road_1_4_1" />
		</vehicle>
		<vehicle depart="138" id="112" type="pkw">
			<route edges="road_1_5_3 road_1_4_2" />
		</vehicle>
		<vehicle depart="140" id="113" type="pkw">
			<route edges="road_0_1_0 road_1_1_0 road_2_1_3" />
		</vehicle>
		<vehicle depart="140" id="114" type="pkw">
			<route edges="road_5_4_2 road_4_4_2 road_3_4_1" />
		</vehicle>
		<vehicle depart="140" id="115" type="pkw">
			<route edges="road_0_4_0 road_1_4_1" />
		</vehicle>
		<vehicle depart="143" id="116" type="pkw">
			<route edges="road_4_0_1 road_4_1_2 road_3_1_2 road_2_1_1 road_2_2_1 road_2_3_1 road_2_4_1" />
		</vehicle>
		<vehicle depart="143" id="117" type="pkw">
			<route edges="road_5_3_2 road_4_3_3 road_4_2_3 road_4_1_2 road_3_1_1 road_3_2_1 road_3_3_1 road_3_4_1" />
		</vehicle>
		<vehicle depart="144" id="118" type="pkw">
			<route edges="road_0_4_0 road_1_4_1" />
		</vehicle>
		<vehicle depart="147" id="119" type="pkw">
			<route edges="road_5_4_2 road_4_4_2 road_3_4_2 road_2_4_1" />
		</vehicle>
		<vehicle depart="148" id="120" type="pkw">
			<route edges="road_0_2_0 road_1_2_0 road_2_2_1 road_2_3_1 road_2_4_1" />
		</vehicle>
		<vehicle depart="148" id="121" type="pkw">
			<route edges="road_5_2_2 road_4_2_2 road_3_2_2 road_2_2_1 road_2_3_0 road_3_3_1 road_3_4_1" />
		</vehicle>
		<vehicle depart="148" id="122" type="pkw">
			<route edges="road_0_4_0 road_1_4_0 road_2_4_0 road_3_4_3 road_3_3_2 road_2_3_1 road_2_4_1" />
		</vehicle>
		<vehicle depart="150" id="123" type="pkw">
			<route edges="road_0_1_0 road_1_1_1 road_1_2_0 road_2_2_0 road_3_2_0 road_4_2_3 road_4_1_2 road_3_1_1 road_3_2_1 road_3_3_2 road_2_3_1 road_2_4_0 road_3_4_3 road_3_3_3 road_3_2_2 road_2_2_1" />
		</vehicle>
		<vehicle depart="152" id="124" type="pkw">
			<route edges="road_0_4_0 road_1_4_0 road_2_4_0 road_3_4_0 road_4_4_3 road_4_3_3 road_4_2_3 road_4_1_2 road_3_1_2 road_2_1_1 road_2_2_1 road_2_3_1 road_2_4_1" />
		</vehicle>
		<vehicle depart="154" id="125" type="pkw">
			<route edges="road_5_4_2 road_4_4_2 road_3_4_1" />
		</vehicle>
		<vehicle depart="156" id="126" type="pkw">
			<route edges="road_4_0_1 road_4_1_1 road_4_2_0" />
		</vehicle>
		<vehicle depart="156" id="127" type="pkw">
			<route edges="road_0_4_0 road_1_4_3 road_1_3_3 road_1_2_3 road_1_1_0 road_2_1_1 road_2_2_1 road_2_3_0 road_3_3_0 road_4_3_0" />
		</vehicle>
		<vehicle depart="156" id="128" type="pkw">
			<route edges="road_5_3_2 road_4_3_2 road_3_3_2 road_2_3_2 road_1_3_2" />
		</vehicle>
		<vehicle depart="160" id="129" type="pkw">
			<route edges="road_0_1_0 road_1_1_3" />
		</vehicle>
		<vehicle depart="160" id="130" type="pkw">
			<route edges="road_0_4_0 road_1_4_1" />
		</vehicle>
		<vehicle depart="161" id="131" type="pkw">
			<route edges="road_5_4_2 road_4_4_2 road_3_4_2 road_2_4_1" />
		</vehicle>
		<vehicle depart="161" id="132" type="pkw">
			<route edges="road_1_0_1 road_1_1_1 road_1_2_1 road_1_3_1 road_1_4_0 road_2_4_3 road_2_3_3 road_2_2_3 road_2_1_3" />
		</vehicle>
		<vehicle depart="161" id="133" type="pkw">
			<route edges="road_1_5_3 road_1_4_3 road_1_3_3 road_1_2_3 road_1_1_3" />
		</vehicle>
		<vehicle depart="164" id="134" type="pkw">
			<route edges="road_0_4_0 road_1_4_0 road_2_4_3 road_2_3_2 road_1_3_2" />
		</vehicle>
		<vehicle depart="168" id="135" type="pkw">
			<route edges="road_5_4_2 road_4_4_2 road_3_4_1" />
		</vehicle>
		<vehicle depart="168" id="136" type="pkw">
			<route edges="road_0_4_0 road_1_4_0 road_2_4_1" />
		</vehicle>
		<vehicle depart="169" id="137" type="pkw">
			<route edges="road_4_0_1 road_4_1_2 road_3_1_1 road_3_2_0 road_4_2_3 road_4_1_3" />
		</vehicle>
		<vehicle depart="169" id="138" type="pkw">
			<route edges="road_5_3_2 road_4_3_2 road_3_3_1 road_3_4_1" />
		</vehicle>
		<vehicle depart="170" id="139" type="pkw">
			<route edges="road_0_1_0 road_1_1_3" />
		</vehicle>
		<vehicle depart="172" id="140" type="pkw">
			<route edges="road_0_4_0 road_1_4_3 road_1_3_3 road_1_2_2" />
		</vehicle>
		<vehicle depart="175" id="141" type="pkw">
			<route edges="road_5_4_2 road_4_4_1" />
		</vehicle>
		<vehicle depart="176" id="142" type="pkw">
			<route edges="road_0_4_0 road_1_4_3 road_1_3_3 road_1_2_3 road_1_1_2" />
		</vehicle>
		<vehicle depart="180" id="143" type="pkw">
			<route edges="road_0_1_0 road_1_1_0 road_2_1_0 road_3_1_0 road_4_1_1 road_4_2_0" />
		</vehicle>
		<vehicle depart="180" id="144" type="pkw">
			<route edges="road_0_4_0 road_1_4_0 road_2_4_0 road_3_4_0 road_4_4_0" />
		</vehicle>
		<vehicle depart="182" id="145" type="pkw">
			<route edges="road_4_0_1 road_4_1_0" />
		</vehicle>
		<vehicle depart="182" id="146" type="pkw">
			<route edges="road_5_4_2 road_4_4_3 road_4_3_3 road_4_2_3 road_4_1_2 road_3_1_3" />
		</vehicle>
		<vehicle depart="182" id="147" type="pkw">
			<route edges="road_5_3_2 road_4_3_1 road_4_4_1" />
		</vehicle>
		<vehicle depart="184" id="148" type="pkw">
			<route edges="road_1_0_1 road_1_1_0 road_2_1_0 road_3_1_0 road_4_1_3" />
		</vehicle>
		<vehicle depart="184" id="149" type="pkw">
			<route edges="road_1_5_3 road_1_4_3 road_1_3_2" />
		</vehicle>
		<vehicle depart="184" id="150" type="pkw">
			<route edges="road_0_4_0 road_1_4_0 road_2_4_3 road_2_3_3 road_2_2_2 road_1_2_1 road_1_3_0" />
		</vehicle>
		<vehicle depart="185" id="151" type="pkw">
			<route edges="road_0_2_0 road_1_2_0 road_2_2_3 road_2_1_3" />
		</vehicle>
		<vehicle depart="185" id="152" type="pkw">
			<route edges="road_5_2_2 road_4_2_2 road_3_2_2 road_2_2_1 road_2_3_1 road_2_4_0 road_3_4_3 road_3_3_3" />
		</vehicle>
		<vehicle depart="188" id="153" type="pkw">
			<route edges="road_0_4_0 road_1_4_0 road_2_4_3 road_2_3_2 road_1_3_2" />
		</vehicle>
		<vehicle depart="189" id="154" type="pkw">
			<route edges="road_5_4_2 road_4_4_1" />
		</vehicle>
		<vehicle depart="190" id="155" type="pkw">
			<route edges="road_0_1_0 road_1_1_3" />
		</vehicle>
		<vehicle depart="192" id="156" type="pkw">
			<route edges="road_0_4_0 road_1_4_3 road_1_3_2" />
		</vehicle>
		<vehicle depart="195" id="157" type="pkw">
			<route edges="road_4_0_1 road_4_1_1 road_4_2_1 road_4_3_0" />
		</vehicle>
		<vehicle depart="195" id="158" type="pkw">
			<route edges="road_5_3_2 road_4_3_2 road_3_3_2 road_2_3_3 road_2_2_2 road_1_2_3 road_1_1_0 road_2_1_0 road_3_1_3" />
		</vehicle>
		<vehicle depart="196" id="159" type="pkw">
			<route edges="road_5_4_2 road_4_4_2 road_3_4_1" />
		</vehicle>
		<vehicle depart="196" id="160" type="pkw">
			<route edges="road_0_4_0 road_1_4_0 road_2_4_1" />
		</vehicle>
		<vehicle depart="200" id="161" type="pkw">
			<route edges="road_0_1_0 road_1_1_0 road_2_1_0 road_3_1_0 road_4_1_0" />
		</vehicle>
		<vehicle depart="200" id="162" type="pkw">
			<route edges="road_0_4_0 road_1_4_3 road_1_3_3 road_1_2_3 road_1_1_0 road_2_1_0 road_3_1_0 road_4_1_3" />
		</vehicle>
		<vehicle depart="203" id="163" type="pkw">
			<route edges="road_5_4_2 road_4_4_2 road_3_4_2 road_2_4_1" />
		</vehicle>
		<vehicle depart="204" id="164" type="pkw">
			<route edges="road_0_4_0 road_1_4_1" />
		</vehicle>
		<vehicle depart="207" id="165" type="pkw">
			<route edges="road_1_0_1 road_1_1_1 road_1_2_1 road_1_3_0 road_2_3_3 road_2_2_2 road_1_2_2" />
		</vehicle>
		<vehicle depart="207" id="166" type="pkw">
			<route edges="road_1_5_3 road_1_4_3 road_1_3_3 road_1_2_3 road_1_1_0 road_2_1_1 road_2_2_1 road_2_3_1 road_2_4_0 road_3_4_1" />
		</vehicle>
		<vehicle depart="208" id="167" type="pkw">
			<route edges="road_4_0_1 road_4_1_1 road_4_2_1 road_4_3_1 road_4_4_2 road_3_4_2 road_2_4_2 road_1_4_2" />
		</vehicle>
		<vehicle depart="208" id="168" type="pkw">
			<route edges="road_0_4_0 road_1_4_0 road_2_4_0 road_3_4_0 road_4_4_0" />
		</vehicle>
		<vehicle depart="208" id="169" type="pkw">
			<route edges="road_5_3_2 road_4_3_1 road_4_4_0" />
		</vehicle>
		<vehicle depart="210" id="170" type="pkw">
			<route edges="road_0_1_0 road_1_1_3" />
		</vehicle>
		<vehicle depart="210" id="171" type="pkw">
			<route edges="road_5_4_2 road_4_4_2 road_3_4_2 road_2_4_2 road_1_4_2" />
		</vehicle>
		<vehicle depart="212" id="172" type="pkw">
			<route edges="road_0_4_0 road_1_4_3 road_1_3_3 road_1_2_3 road_1_1_3" />
		</vehicle>
		<vehicle depart="216" id="173" type="pkw">
			<route edges="road_0_4_0 road_1_4_3 road_1_3_3 road_1_2_3 road_1_1_3" />
		</vehicle>
		<vehicle depart="217" id="174" type="pkw">
			<route edges="road_5_4_2 road_4_4_2 road_3_4_2 road_2_4_2 road_1_4_2" />
		</vehicle>
		<vehicle depart="220" id="175" type="pkw">
			<route edges="road_0_1_0 road_1_1_0 road_2_1_0 road_3_1_0 road_4_1_0" />
		</vehicle>
		<vehicle depart="220" id="176" type="pkw">
			<route edges="road_0_4_0 road_1_4_0 road_2_4_3 road_2_3_0 road_3_3_0 road_4_3_1 road_4_4_1" />
		</vehicle>
		<vehicle depart="221" id="177" type="pkw">
			<route edges="road_4_0_1 road_4_1_1 road_4_2_2 road_3_2_2 road_2_2_2 road_1_2_2" />
		</vehicle>
		<vehicle depart="221" id="178" type="pkw">
			<route edges="road_5_3_2 road_4_3_1 road_4_4_2 road_3_4_1" />
		</vehicle>
		<vehicle depart="222" id="179" type="pkw">
			<route edges="road_0_2_0 road_1_2_3 road_1_1_3" />
		</vehicle>
		<vehicle depart="222" id="180" type="pkw">
			<route edges="road_5_2_2 road_4_2_2 road_3_2_1 road_3_3_0 road_4_3_3 road_4_2_3 road_4_1_2 road_3_1_1 road_3_2_0" />
		</vehicle>
		<vehicle depart="224" id="181" type="pkw">
			<route edges="road_5_4_2 road_4_4_3 road_4_3_3 road_4_2_2 road_3_2_2 road_2_2_3 road_2_1_3" />
		</vehicle>
		<vehicle depart="224" id="182" type="pkw">
			<route edges="road_0_4_0 road_1_4_0 road_2_4_3 road_2_3_2 road_1_3_2" />
		</vehicle>
		<vehicle depart="228" id="183" type="pkw">
			<route edges="road_0_4_0 road_1_4_3 road_1_3_0 road_2_3_3 road_2_2_3 road_2_1_3" />
		</vehicle>
		<vehicle depart="230" id="184" type="pkw">
			<route edges="road_0_1_0 road_1_1_0 road_2_1_0 road_3_1_0 road_4_1_0" />
		</vehicle>
		<vehicle depart="230" id="185" type="pkw">
			<route edges="road_1_0_1 road_1_1_1 road_1_2_1 road_1_3_1 road_1_4_1" />
		</vehicle>
		<vehicle depart="230" id="186" type="pkw">
			<route edges="road_1_5_3 road_1_4_0 road_2_4_0 road_3_4_3 road_3_3_2 road_2_3_2 road_1_3_2" />
		</vehicle>
		<vehicle depart="231" id="187" type="pkw">
			<route edges="road_5_4_2 road_4_4_2 road_3_4_2 road_2_4_1" />
		</vehicle>
		<vehicle depart="232" id="188" type="pkw">
			<route edges="road_0_4_0 road_1_4_0 road_2_4_0 road_3_4_0 road_4_4_1" />
		</vehicle>
		<vehicle depart="234" id="189" type="pkw">
			<route edges="road_4_0_1 road_4_1_1 road_4_2_1 road_4_3_1 road_4_4_1" />
		</vehicle>
		<vehicle depart="234" id="190" type="pkw">
			<route edges="road_5_3_2 road_4_3_1 road_4_4_2 road_3_4_1" />
		</vehicle>
		<vehicle depart="236" id="191" type="pkw">
			<route edges="road_0_4_0 road_1_4_0 road_2_4_3 road_2_3_2 road_1_3_2" />
		</vehicle>
		<vehicle depart="238" id="192" type="pkw">
			<route edges="road_5_4_2 road_4_4_1" />
		</vehicle>
		<vehicle depart="240" id="193" type="pkw">
			<route edges="road_0_1_0 road_1_1_3" />
		</vehicle>
		<vehicle depart="240" id="194" type="pkw">
			<route edges="road_0_4_0 road_1_4_0 road_2_4_0 road_3_4_0 road_4_4_0" />
		</vehicle>
		<vehicle depart="244" id="195" type="pkw">
			<route edges="road_0_4_0 road_1_4_1" />
		</vehicle>
		<vehicle depart="245" id="196" type="pkw">
			<route edges="road_5_4_2 road_4_4_1" />
		</vehicle>
		<vehicle depart="247" id="197" type="pkw">
			<route edges="road_4_0_1 road_4_1_1 road_4_2_2 road_3_2_2 road_2_2_2 road_1_2_2" />
		</vehicle>
		<vehicle depart="247" id="198" type="pkw">
			<route edges="road_5_3_2 road_4_3_2 road_3_3_2 road_2_3_2 road_1_3_1 road_1_4_1" />
		</vehicle>
		<vehicle depart="248" id="199" type="pkw">
			<route edges="road_0_4_0 road_1_4_0 road_2_4_0 road_3_4_1" />
		</vehicle>
		<vehicle depart="250" id="200" type="pkw">
			<route edges="road_0_1_0 road_1_1_0 road_2_1_0 road_3_1_0 road_4_1_0" />
		</vehicle>
		<vehicle depart="252" id="201" type="pkw">
			<route edges="road_5_4_2 road_4_4_1" />
		</vehicle>
		<vehicle depart="252" id="202" type="pkw">
			<route edges="road_0_4_0 road_1_4_0 road_2_4_0 road_3_4_0 road_4_4_0" />
		</vehicle>
		<vehicle depart="253" id="203" type="pkw">
			<route edges="road_1_0_1 road_1_1_1 road_1_2_1 road_1_3_1 road_1_4_1" />
		</vehicle>
		<vehicle depart="253" id="204" type="pkw">
			<route edges="road_1_5_3 road_1_4_3 road_1_3_2" />
		</vehicle>
		<vehicle depart="256" id="205" type="pkw">
			<route edges="road_0_4_0 road_1_4_0 road_2_4_3 road_2_3_3 road_2_2_3 road_2_1_3" />
		</vehicle>
		<vehicle depart="259" id="206" type="pkw">
			<route edges="road_5_4_2 road_4_4_2 road_3_4_2 road_2_4_3 road_2_3_2 road_1_3_2" />
		</vehicle>
		<vehicle depart="259" id="207" type="pkw">
			<route edges="road_0_2_0 road_1_2_0 road_2_2_0 road_3_2_0 road_4_2_0" />
		</vehicle>
		<vehicle depart="259" id="208" type="pkw">
			<route edges="road_5_2_2 road_4_2_1 road_4_3_1 road_4_4_1" />
		</vehicle>
		<vehicle depart="260" id="209" type="pkw">
			<route edges="road_4_0_1 road_4_1_0" />
		</vehicle>
		<vehicle depart="260" id="210" type="pkw">
			<route edges="road_0_1_0 road_1_1_0 road_2_1_0 road_3_1_0 road_4_1_3" />
		</vehicle>
		<vehicle depart="260" id="211" type="pkw">
			<route edges="road_0_4_0 road_1_4_0 road_2_4_0 road_3_4_0 road_4_4_0" />
		</vehicle>
		<vehicle depart="260" id="212" type="pkw">
			<route edges="road_5_3_2 road_4_3_2 road_3_3_1 road_3_4_1" />
		</vehicle>
		<vehicle depart="264" id="213" type="pkw">
			<route edges="road_0_4_0 road_1_4_1" />
		</vehicle>
		<vehicle depart="266" id="214" type="pkw">
			<route edges="road_5_4_2 road_4_4_1" />
		</vehicle>
		<vehicle depart="268" id="215" type="pkw">
			<route edges="road_0_4_0 road_1_4_3 road_1_3_3 road_1_2_2" />
		</vehicle>
		<vehicle depart="270" id="216" type="pkw">
			<route edges="road_0_1_0 road_1_1_0 road_2_1_3" />
		</vehicle>
		<vehicle depart="272" id="217" type="pkw">
			<route edges="road_0_4_0 road_1_4_3 road_1_3_3 road_1_2_3 road_1_1_3" />
		</vehicle>
		<vehicle depart="273" id="218" type="pkw">
			<route edges="road_4_0_1 road_4_1_1 road_4_2_0" />
		</vehicle>
		<vehicle depart="273" id="219" type="pkw">
			<route edges="road_5_4_2 road_4_4_1" />
		</vehicle>
		<vehicle depart="273" id="220" type="pkw">
			<route edges="road_5_3_2 road_4_3_1 road_4_4_0" />
		</vehicle>
		<vehicle depart="276" id="221" type="pkw">
			<route edges="road_1_0_1 road_1_1_0 road_2_1_3" />
		</vehicle>
		<vehicle depart="276" id="222" type="pkw">
			<route edges="road_1_5_3 road_1_4_3 road_1_3_3 road_1_2_3 road_1_1_2" />
		</vehicle>
		<vehicle depart="276" id="223" type="pkw">
			<route edges="road_0_4_0 road_1_4_0 road_2_4_0 road_3_4_0 road_4_4_3 road_4_3_2 road_3_3_3 road_3_2_3 road_3_1_3" />
		</vehicle>
		<vehicle depart="280" id="224" type="pkw">
			<route edges="road_0_1_0 road_1_1_0 road_2_1_0 road_3_1_0 road_4_1_0" />
		</vehicle>
		<vehicle depart="280" id="225" type="pkw">
			<route edges="road_5_4_2 road_4_4_1" />
		</vehicle>
		<vehicle depart="280" id="226" type="pkw">
			<route edges="road_0_4_0 road_1_4_0 road_2_4_0 road_3_4_3 road_3_3_3 road_3_2_3 road_3_1_2 road_2_1_2 road_1_1_2" />
		</vehicle>
		<vehicle depart="284" id="227" type="pkw">
			<route edges="road_0_4_0 road_1_4_3 road_1_3_3 road_1_2_3 road_1_1_3" />