<?xml version="1.0" encoding="utf-8"?>
<configuration>
	<input>
		<net-file value="hangzhou_4x4_gudang_18041610_1h_2.net.xml"/>
		<route-files value="hangzhou_4x4_gudang_18041610_1h_2.rou.xml"/>
	</input>
	<time>
		<begin value="0"/>
		<end value="3600"/>
	</time>
</configuration>
