<?xml version="1.0" encoding="utf-8"?>
<configuration>
	<input>
		<net-file value="manhattan_7x7_3.net.xml"/>
		<route-files value="manhattan_7x7_merged_0.5_4.rou.xml"/>
	</input>
	<time>
		<begin value="0"/>
		<end value="3600"/>
	</time>
</configuration>
