<routes xmlns:xsi="http://www.w3.org/2001/XMLSchema-instance" xsi:noNamespaceSchemaLocation="http://sumo.dlr.de/xsd/routes_file.xsd">
		<vType accel="2.0" decel="4.5" id="pkw" length="5.0" maxSpeed="11.111" minGap="2.5" width="2.0" jmIgnoreJunctionFoeProb="0.2" />
		<vehicle id="50000" depart="0.00" type="pkw">
        <route edges="road_5_4_1 road_5_5_2 road_4_5_3 road_4_4_2 road_3_4_3 road_3_3_2 road_2_3_2 road_1_3_3 road_1_2_0" />
    </vehicle>
    <vehicle depart="0" id="0" type="pkw">
			<route edges="road_8_2_2 road_7_2_3 road_7_1_3" />
		</vehicle>
		<vehicle depart="0" id="1" type="pkw">
			<route edges="road_8_6_2 road_7_6_3 road_7_5_2 road_6_5_2 road_5_5_2 road_4_5_2 road_3_5_3 road_3_4_3 road_3_3_3 road_3_2_3 road_3_1_2 road_2_1_2 road_1_1_3" />
		</vehicle>
		<vehicle depart="0" id="12" type="pkw">
			<route edges="road_1_0_1 road_1_1_1 road_1_2_0 road_2_2_0 road_3_2_3 road_3_1_3" />
		</vehicle>
		<vehicle depart="0" id="13" type="pkw">
			<route edges="road_2_0_1 road_2_1_1 road_2_2_0 road_3_2_0 road_4_2_0 road_5_2_3 road_5_1_2 road_4_1_3" />
		</vehicle>
		<vehicle depart="0" id="14" type="pkw">
			<route edges="road_3_0_1 road_3_1_2 road_2_1_1 road_2_2_1 road_2_3_1 road_2_4_1 road_2_5_1 road_2_6_1 road_2_7_1" />
		</vehicle>
		<vehicle depart="0" id="15" type="pkw">
			<route edges="road_4_0_1 road_4_1_2 road_3_1_2 road_2_1_2 road_1_1_3" />
		</vehicle>
		<vehicle depart="0" id="16" type="pkw">
			<route edges="road_5_0_1 road_5_1_2 road_4_1_2 road_3_1_2 road_2_1_2 road_1_1_1 road_1_2_1 road_1_3_1 road_1_4_1 road_1_5_1 road_1_6_1 road_1_7_1" />
		</vehicle>
		<vehicle depart="0" id="17" type="pkw">
			<route edges="road_6_0_1 road_6_1_2 road_5_1_2 road_4_1_2 road_3_1_3" />
		</vehicle>
		<vehicle depart="0" id="21" type="pkw">
			<route edges="road_0_5_0 road_1_5_1 road_1_6_0 road_2_6_0 road_3_6_0 road_4_6_0 road_5_6_0 road_6_6_0 road_7_6_1 road_7_7_1" />
		</vehicle>
		<vehicle depart="0" id="35" type="pkw">
			<route edges="road_2_0_1 road_2_1_2 road_1_1_1 road_1_2_1 road_1_3_1 road_1_4_1 road_1_5_2" />
		</vehicle>
		<vehicle id="50001" depart="0.50" type="pkw">
        <route edges="road_2_7_2 road_1_7_3 road_1_6_0 road_2_6_3 road_2_5_3 road_2_4_3" />
    </vehicle>
    <vehicle id="50002" depart="1.00" type="pkw">
        <route edges="road_6_2_0 road_7_2_1 road_7_3_2 road_6_3_1 road_6_4_2 road_5_4_1 road_5_5_1 road_5_6_0" />
    </vehicle>
    <vehicle depart="1" id="37" type="pkw">
			<route edges="road_2_0_1 road_2_1_2 road_1_1_3" />
		</vehicle>
		<vehicle depart="1" id="38" type="pkw">
			<route edges="road_3_0_1 road_3_1_2 road_2_1_3" />
		</vehicle>
		<vehicle depart="1" id="39" type="pkw">
			<route edges="road_4_0_1 road_4_1_2 road_3_1_2 road_2_1_2 road_1_1_1 road_1_2_1 road_1_3_1 road_1_4_1 road_1_5_1 road_1_6_1 road_1_7_1" />
		</vehicle>
		<vehicle id="50003" depart="1.50" type="pkw">
        <route edges="road_7_3_1 road_7_4_2 road_6_4_2 road_5_4_2 road_4_4_1 road_4_5_2 road_3_5_2 road_2_5_2 road_1_5_1" />
    </vehicle>
    <vehicle id="50004" depart="2.00" type="pkw">
        <route edges="road_3_7_3 road_3_6_3 road_3_5_3 road_3_4_3 road_3_3_2 road_2_3_3 road_2_2_2 road_1_2_1" />
    </vehicle>
    <vehicle id="50005" depart="2.50" type="pkw">
        <route edges="road_2_4_2 road_1_4_1 road_1_5_0 road_2_5_0 road_3_5_3 road_3_4_0 road_4_4_3" />
    </vehicle>
    <vehicle id="50006" depart="3.00" type="pkw">
        <route edges="road_0_6_0 road_1_6_3 road_1_5_3 road_1_4_0 road_2_4_3 road_2_3_2" />
    </vehicle>
    <vehicle depart="3" id="41" type="pkw">
			<route edges="road_1_0_1 road_1_1_1 road_1_2_0 road_2_2_0 road_3_2_3 road_3_1_2 road_2_1_3" />
		</vehicle>
		<vehicle id="50007" depart="3.50" type="pkw">
        <route edges="road_5_4_3 road_5_3_2 road_4_3_1 road_4_4_1 road_4_5_1 road_4_6_2" />
    </vehicle>
    <vehicle id="50008" depart="4.00" type="pkw">
        <route edges="road_2_4_3 road_2_3_0 road_3_3_3 road_3_2_0 road_4_2_3 road_4_1_0 road_5_1_3" />
    </vehicle>
    <vehicle id="50009" depart="4.50" type="pkw">
        <route edges="road_6_5_2 road_5_5_3 road_5_4_2 road_4_4_3 road_4_3_2 road_3_3_3 road_3_2_2 road_2_2_3 road_2_1_2 road_1_1_1" />
    </vehicle>
    <vehicle id="50010" depart="5.00" type="pkw">
        <route edges="road_6_5_1 road_6_6_2 road_5_6_1 road_5_7_0" />
    </vehicle>
    <vehicle id="50011" depart="5.50" type="pkw">
        <route edges="road_3_3_2 road_2_3_3 road_2_2_3 road_2_1_2" />
    </vehicle>
    <vehicle id="50012" depart="6.00" type="pkw">
        <route edges="road_7_7_3 road_7_6_2 road_6_6_3 road_6_5_2 road_5_5_3 road_5_4_2 road_4_4_3 road_4_3_2 road_3_3_1" />
    </vehicle>
    <vehicle id="50013" depart="6.50" type="pkw">
        <route edges="road_1_4_3 road_1_3_0 road_2_3_1 road_2_4_2 road_1_4_1 road_1_5_2" />
    </vehicle>
    <vehicle id="50014" depart="7.00" type="pkw">
        <route edges="road_6_7_3 road_6_6_3 road_6_5_3 road_6_4_3 road_6_3_2 road_5_3_3 road_5_2_2" />
    </vehicle>
    <vehicle id="50015" depart="7.50" type="pkw">
        <route edges="road_6_5_2 road_5_5_3 road_5_4_0 road_6_4_3 road_6_3_3 road_6_2_3 road_6_1_3" />
    </vehicle>
    <vehicle id="50016" depart="8.00" type="pkw">
        <route edges="road_4_6_1 road_4_7_0 road_5_7_0 road_6_7_0 road_7_7_3 road_7_6_2" />
    </vehicle>
    <vehicle id="50017" depart="8.50" type="pkw">
        <route edges="road_3_5_2 road_2_5_1 road_2_6_0 road_3_6_1 road_3_7_0 road_4_7_0" />
    </vehicle>
    <vehicle id="50018" depart="9.00" type="pkw">
        <route edges="road_6_6_2 road_5_6_3 road_5_5_0 road_6_5_3 road_6_4_3 road_6_3_2 road_5_3_1" />
    </vehicle>
    <vehicle id="50019" depart="9.50" type="pkw">
        <route edges="road_7_0_1 road_7_1_2 road_6_1_2 road_5_1_1" />
    </vehicle>
    <vehicle id="50020" depart="10.00" type="pkw">
        <route edges="road_5_7_3 road_5_6_2 road_4_6_3 road_4_5_2 road_3_5_3 road_3_4_2 road_2_4_2 road_1_4_3 road_1_3_0" />
    </vehicle>
    <vehicle depart="10" id="45" type="pkw">
			<route edges="road_1_0_1 road_1_1_1 road_1_2_1 road_1_3_1 road_1_4_1 road_1_5_1 road_1_6_1 road_1_7_1" />
		</vehicle>
		<vehicle depart="10" id="46" type="pkw">
			<route edges="road_0_5_0 road_1_5_1 road_1_6_0 road_2_6_3 road_2_5_3 road_2_4_3 road_2_3_3 road_2_2_3 road_2_1_2 road_1_1_3" />
		</vehicle>
		<vehicle id="50021" depart="10.50" type="pkw">
        <route edges="road_2_5_0 road_3_5_3 road_3_4_3 road_3_3_3 road_3_2_3 road_3_1_0" />
    </vehicle>
    <vehicle id="50022" depart="11.00" type="pkw">
        <route edges="road_1_3_3 road_1_2_0 road_2_2_1 road_2_3_1 road_2_4_1 road_2_5_1" />
    </vehicle>
    <vehicle id="50023" depart="11.50" type="pkw">
        <route edges="road_1_5_0 road_2_5_1 road_2_6_1 road_2_7_2" />
    </vehicle>
    <vehicle id="50024" depart="12.00" type="pkw">
        <route edges="road_5_4_0 road_6_4_3 road_6_3_2 road_5_3_2 road_4_3_1 road_4_4_2 road_3_4_3" />
    </vehicle>
    <vehicle depart="12" id="48" type="pkw">
			<route edges="road_4_0_1 road_4_1_1 road_4_2_0 road_5_2_0 road_6_2_0 road_7_2_1 road_7_3_1 road_7_4_1 road_7_5_1 road_7_6_1 road_7_7_1" />
		</vehicle>
		<vehicle id="50025" depart="12.50" type="pkw">
        <route edges="road_3_5_0 road_4_5_3 road_4_4_2 road_3_4_2 road_2_4_1" />
    </vehicle>
    <vehicle id="50026" depart="13.00" type="pkw">
        <route edges="road_2_7_0 road_3_7_0 road_4_7_3 road_4_6_0 road_5_6_3 road_5_5_0 road_6_5_3 road_6_4_0 road_7_4_3" />
    </vehicle>
    <vehicle depart="13" id="49" type="pkw">
			<route edges="road_1_0_1 road_1_1_1 road_1_2_1 road_1_3_1 road_1_4_1 road_1_5_1 road_1_6_1 road_1_7_1" />
		</vehicle>
		<vehicle id="50027" depart="13.50" type="pkw">
        <route edges="road_5_4_3 road_5_3_3 road_5_2_3" />
    </vehicle>
    <vehicle id="50028" depart="14.00" type="pkw">
        <route edges="road_2_2_1 road_2_3_0 road_3_3_0 road_4_3_0 road_5_3_3 road_5_2_0 road_6_2_3 road_6_1_2" />
    </vehicle>
    <vehicle id="50029" depart="14.50" type="pkw">
        <route edges="road_2_2_0 road_3_2_1 road_3_3_1 road_3_4_1 road_3_5_2" />
    </vehicle>
    <vehicle id="50030" depart="15.00" type="pkw">
        <route edges="road_8_5_2 road_7_5_2 road_6_5_3 road_6_4_2 road_5_4_1" />
    </vehicle>
    <vehicle depart="15" id="50" type="pkw">
			<route edges="road_1_0_1 road_1_1_1 road_1_2_1 road_1_3_1 road_1_4_1 road_1_5_1 road_1_6_1 road_1_7_1" />
		</vehicle>
		<vehicle id="50031" depart="15.50" type="pkw">
        <route edges="road_4_7_2 road_3_7_3 road_3_6_0 road_4_6_1 road_4_7_0 road_5_7_3 road_5_6_2" />
    </vehicle>
    <vehicle id="50032" depart="16.00" type="pkw">
        <route edges="road_6_7_2 road_5_7_3 road_5_6_0 road_6_6_3 road_6_5_3 road_6_4_0" />
    </vehicle>
    <vehicle id="50033" depart="16.50" type="pkw">
        <route edges="road_2_5_0 road_3_5_3 road_3_4_2 road_2_4_3 road_2_3_2 road_1_3_3 road_1_2_2" />
    </vehicle>
    <vehicle id="50034" depart="17.00" type="pkw">
        <route edges="road_3_2_1 road_3_3_1 road_3_4_1 road_3_5_2 road_2_5_1 road_2_6_1 road_2_7_0" />
    </vehicle>
    <vehicle id="50035" depart="17.50" type="pkw">
        <route edges="road_2_4_1 road_2_5_0 road_3_5_0 road_4_5_0 road_5_5_0 road_6_5_0 road_7_5_0" />
    </vehicle>
    <vehicle id="50036" depart="18.00" type="pkw">
        <route edges="road_7_2_1 road_7_3_2 road_6_3_3 road_6_2_2 road_5_2_2 road_4_2_2 road_3_2_1" />
    </vehicle>
    <vehicle id="50037" depart="18.50" type="pkw">
        <route edges="road_5_5_0 road_6_5_1 road_6_6_2 road_5_6_2 road_4_6_2 road_3_6_1" />
    </vehicle>
    <vehicle id="50038" depart="19.00" type="pkw">
        <route edges="road_7_4_3 road_7_3_2 road_6_3_2 road_5_3_3 road_5_2_2 road_4_2_1" />
    </vehicle>
    <vehicle id="50039" depart="19.50" type="pkw">
        <route edges="road_2_6_3 road_2_5_2 road_1_5_1 road_1_6_0 road_2_6_0" />
    </vehicle>
    <vehicle id="50040" depart="20.00" type="pkw">
        <route edges="road_4_7_3 road_4_6_2 road_3_6_2 road_2_6_3" />
    </vehicle>
    <vehicle id="50041" depart="20.50" type="pkw">
        <route edges="road_5_1_1 road_5_2_0 road_6_2_0 road_7_2_3" />
    </vehicle>
    <vehicle id="50042" depart="21.00" type="pkw">
        <route edges="road_3_6_2 road_2_6_3 road_2_5_3 road_2_4_2" />
    </vehicle>
    <vehicle id="50043" depart="21.50" type="pkw">
        <route edges="road_8_7_2 road_7_7_3 road_7_6_2 road_6_6_3 road_6_5_2 road_5_5_3 road_5_4_2 road_4_4_3" />
    </vehicle>
    <vehicle id="50044" depart="22.00" type="pkw">
        <route edges="road_1_4_1 road_1_5_0 road_2_5_3 road_2_4_3 road_2_3_2 road_1_3_1" />
    </vehicle>
    <vehicle id="50045" depart="22.50" type="pkw">
        <route edges="road_1_5_3 road_1_4_0 road_2_4_0 road_3_4_0 road_4_4_0 road_5_4_3 road_5_3_2" />
    </vehicle>
    <vehicle id="50046" depart="23.00" type="pkw">
        <route edges="road_6_4_3 road_6_3_2 road_5_3_1 road_5_4_2 road_4_4_1 road_4_5_2 road_3_5_1 road_3_6_1 road_3_7_2" />
    </vehicle>
    <vehicle id="50047" depart="23.50" type="pkw">
        <route edges="road_1_2_3 road_1_1_0 road_2_1_1 road_2_2_0 road_3_2_1 road_3_3_1 road_3_4_1 road_3_5_2" />
    </vehicle>
    <vehicle id="50048" depart="24.00" type="pkw">
        <route edges="road_8_7_2 road_7_7_3 road_7_6_2 road_6_6_3 road_6_5_2 road_5_5_2 road_4_5_3" />
    </vehicle>
    <vehicle id="50049" depart="24.50" type="pkw">
        <route edges="road_8_2_2 road_7_2_3 road_7_1_0" />
    </vehicle>
    <vehicle id="50050" depart="25.00" type="pkw">
        <route edges="road_0_3_0 road_1_3_3 road_1_2_0 road_2_2_3 road_2_1_0 road_3_1_0 road_4_1_0 road_5_1_0 road_6_1_1" />
    </vehicle>
    <vehicle id="50051" depart="25.50" type="pkw">
        <route edges="road_5_6_1 road_5_7_0 road_6_7_3 road_6_6_2 road_5_6_2 road_4_6_1" />
    </vehicle>
    <vehicle id="50052" depart="26.00" type="pkw">
        <route edges="road_2_7_0 road_3_7_3 road_3_6_3 road_3_5_0 road_4_5_3 road_4_4_0 road_5_4_1" />
    </vehicle>
    <vehicle id="50053" depart="26.50" type="pkw">
        <route edges="road_1_5_3 road_1_4_0 road_2_4_3 road_2_3_0 road_3_3_3 road_3_2_3 road_3_1_0 road_4_1_1" />
    </vehicle>
    <vehicle id="50054" depart="27.00" type="pkw">
        <route edges="road_4_2_0 road_5_2_1 road_5_3_0 road_6_3_1 road_6_4_0 road_7_4_1 road_7_5_2" />
    </vehicle>
    <vehicle id="50055" depart="27.50" type="pkw">
        <route edges="road_7_2_1 road_7_3_2 road_6_3_2 road_5_3_1 road_5_4_2 road_4_4_1 road_4_5_2 road_3_5_1 road_3_6_2 road_2_6_3" />
    </vehicle>
    <vehicle id="50056" depart="28.00" type="pkw">
        <route edges="road_4_4_2 road_3_4_3 road_3_3_3 road_3_2_2 road_2_2_3" />
    </vehicle>
    <vehicle depart="28" id="60" type="pkw">
			<route edges="road_1_0_1 road_1_1_1 road_1_2_0 road_2_2_0 road_3_2_3 road_3_1_3" />
		</vehicle>
		<vehicle id="50057" depart="28.50" type="pkw">
        <route edges="road_7_4_2 road_6_4_3 road_6_3_0 road_7_3_3 road_7_2_3 road_7_1_2" />
    </vehicle>
    <vehicle id="50058" depart="29.00" type="pkw">
        <route edges="road_3_1_1 road_3_2_1 road_3_3_0 road_4_3_1 road_4_4_0 road_5_4_1" />
    </vehicle>
    <vehicle id="50059" depart="29.50" type="pkw">
        <route edges="road_5_2_3 road_5_1_2 road_4_1_2 road_3_1_2 road_2_1_1" />
    </vehicle>
    <vehicle id="50060" depart="30.00" type="pkw">
        <route edges="road_6_3_1 road_6_4_2 road_5_4_1 road_5_5_2 road_4_5_1 road_4_6_1" />
    </vehicle>
    <vehicle id="50061" depart="30.50" type="pkw">
        <route edges="road_6_4_0 road_7_4_1 road_7_5_2 road_6_5_2 road_5_5_2 road_4_5_3" />
    </vehicle>
    <vehicle id="50062" depart="31.00" type="pkw">
        <route edges="road_0_1_0 road_1_1_0 road_2_1_1 road_2_2_0 road_3_2_3" />
    </vehicle>
    <vehicle id="50063" depart="31.50" type="pkw">
        <route edges="road_0_4_0 road_1_4_0 road_2_4_1 road_2_5_0 road_3_5_0 road_4_5_0 road_5_5_0 road_6_5_0 road_7_5_3 road_7_4_2" />
    </vehicle>
    <vehicle id="50064" depart="32.00" type="pkw">
        <route edges="road_7_2_2 road_6_2_1 road_6_3_1 road_6_4_2 road_5_4_1 road_5_5_1 road_5_6_0 road_6_6_3" />
    </vehicle>
    <vehicle id="50065" depart="32.50" type="pkw">
        <route edges="road_3_2_0 road_4_2_1 road_4_3_2 road_3_3_2 road_2_3_2 road_1_3_3" />
    </vehicle>
    <vehicle id="50066" depart="33.00" type="pkw">
        <route edges="road_7_2_2 road_6_2_1 road_6_3_1 road_6_4_1 road_6_5_0 road_7_5_1" />
    </vehicle>
    <vehicle id="50067" depart="33.50" type="pkw">
        <route edges="road_1_4_0 road_2_4_0 road_3_4_3 road_3_3_0 road_4_3_3" />
    </vehicle>
    <vehicle id="50068" depart="34.00" type="pkw">
        <route edges="road_1_3_0 road_2_3_0 road_3_3_0 road_4_3_0 road_5_3_0 road_6_3_1" />
    </vehicle>
    <vehicle id="50069" depart="34.50" type="pkw">
        <route edges="road_6_3_2 road_5_3_1 road_5_4_2 road_4_4_1 road_4_5_2 road_3_5_1 road_3_6_2 road_2_6_1 road_2_7_2 road_1_7_1" />
    </vehicle>
    <vehicle id="50070" depart="35.00" type="pkw">
        <route edges="road_4_3_1 road_4_4_1 road_4_5_2 road_3_5_1 road_3_6_0 road_4_6_3" />
    </vehicle>
    <vehicle id="50071" depart="35.50" type="pkw">
        <route edges="road_2_6_3 road_2_5_0 road_3_5_0 road_4_5_3 road_4_4_0 road_5_4_3 road_5_3_0 road_6_3_3 road_6_2_0 road_7_2_3 road_7_1_2" />
    </vehicle>
    <vehicle id="50072" depart="36.00" type="pkw">
        <route edges="road_3_7_3 road_3_6_3 road_3_5_3 road_3_4_2 road_2_4_1" />
    </vehicle>
    <vehicle id="50073" depart="36.50" type="pkw">
        <route edges="road_4_6_1 road_4_7_0 road_5_7_3 road_5_6_0 road_6_6_3 road_6_5_3 road_6_4_3 road_6_3_3 road_6_2_3 road_6_1_3" />
    </vehicle>
    <vehicle id="50074" depart="37.00" type="pkw">
        <route edges="road_2_3_3 road_2_2_0 road_3_2_1" />
    </vehicle>
    <vehicle id="50075" depart="37.50" type="pkw">
        <route edges="road_8_7_2 road_7_7_3 road_7_6_3 road_7_5_2 road_6_5_3 road_6_4_2 road_5_4_3" />
    </vehicle>
    <vehicle id="50076" depart="38.00" type="pkw">
        <route edges="road_4_1_0 road_5_1_1 road_5_2_2 road_4_2_1 road_4_3_1 road_4_4_1 road_4_5_1" />
    </vehicle>
    <vehicle id="50077" depart="38.50" type="pkw">
        <route edges="road_1_6_1 road_1_7_0 road_2_7_3 road_2_6_3 road_2_5_0" />
    </vehicle>
    <vehicle id="50078" depart="39.00" type="pkw">
        <route edges="road_3_3_2 road_2_3_3 road_2_2_0 road_3_2_3 road_3_1_0 road_4_1_0 road_5_1_3" />
    </vehicle>
    <vehicle depart="39" id="62" type="pkw">
			<route edges="road_3_0_1 road_3_1_2 road_2_1_2 road_1_1_3" />
		</vehicle>
		<vehicle id="50079" depart="39.50" type="pkw">
        <route edges="road_2_5_1 road_2_6_0 road_3_6_3 road_3_5_3 road_3_4_2 road_2_4_3" />
    </vehicle>
    <vehicle id="50080" depart="40.00" type="pkw">
        <route edges="road_1_3_0 road_2_3_0 road_3_3_0 road_4_3_0 road_5_3_3" />
    </vehicle>
    <vehicle depart="40" id="2" type="pkw">
			<route edges="road_5_8_3 road_5_7_3 road_5_6_3 road_5_5_3 road_5_4_3 road_5_3_3 road_5_2_3 road_5_1_3" />
		</vehicle>
		<vehicle id="50081" depart="40.50" type="pkw">
        <route edges="road_2_5_0 road_3_5_0 road_4_5_0 road_5_5_3 road_5_4_0 road_6_4_3 road_6_3_0 road_7_3_1" />
    </vehicle>
    <vehicle id="50082" depart="41.00" type="pkw">
        <route edges="road_7_0_1 road_7_1_2 road_6_1_2 road_5_1_1 road_5_2_2 road_4_2_2 road_3_2_1 road_3_3_2 road_2_3_1 road_2_4_2 road_1_4_1" />
    </vehicle>
    <vehicle id="50083" depart="41.50" type="pkw">
        <route edges="road_2_5_2 road_1_5_1 road_1_6_0 road_2_6_0 road_3_6_3 road_3_5_0 road_4_5_0 road_5_5_3" />
    </vehicle>
    <vehicle id="50084" depart="42.00" type="pkw">
        <route edges="road_2_4_1 road_2_5_1 road_2_6_1 road_2_7_2 road_1_7_1" />
    </vehicle>
    <vehicle id="50085" depart="42.50" type="pkw">
        <route edges="road_7_6_1 road_7_7_2 road_6_7_2 road_5_7_2 road_4_7_3" />
    </vehicle>
    <vehicle id="50086" depart="43.00" type="pkw">
        <route edges="road_4_3_0 road_5_3_1 road_5_4_0 road_6_4_1" />
    </vehicle>
    <vehicle depart="43" id="66" type="pkw">
			<route edges="road_3_0_1 road_3_1_2 road_2_1_1 road_2_2_0 road_3_2_0 road_4_2_0 road_5_2_3 road_5_1_2 road_4_1_3" />
		</vehicle>
		<vehicle id="50087" depart="43.50" type="pkw">
        <route edges="road_6_5_2 road_5_5_3 road_5_4_2 road_4_4_3 road_4_3_2 road_3_3_2 road_2_3_1" />
    </vehicle>
    <vehicle id="50088" depart="44.00" type="pkw">
        <route edges="road_1_4_3 road_1_3_0 road_2_3_0 road_3_3_3 road_3_2_0 road_4_2_3 road_4_1_0" />
    </vehicle>
    <vehicle id="50089" depart="44.50" type="pkw">
        <route edges="road_3_8_3 road_3_7_3 road_3_6_0 road_4_6_3 road_4_5_3 road_4_4_3 road_4_3_3 road_4_2_3" />
    </vehicle>
    <vehicle id="50090" depart="45.00" type="pkw">
        <route edges="road_6_1_1 road_6_2_1 road_6_3_1 road_6_4_1 road_6_5_2 road_5_5_3" />
    </vehicle>
    <vehicle id="50091" depart="45.50" type="pkw">
        <route edges="road_8_4_2 road_7_4_2 road_6_4_2 road_5_4_2 road_4_4_1 road_4_5_2 road_3_5_2 road_2_5_2 road_1_5_3" />
    </vehicle>
    <vehicle id="50092" depart="46.00" type="pkw">
        <route edges="road_3_6_2 road_2_6_3 road_2_5_0 road_3_5_3 road_3_4_3 road_3_3_2" />
    </vehicle>
    <vehicle depart="46" id="69" type="pkw">
			<route edges="road_3_0_1 road_3_1_2 road_2_1_2 road_1_1_3" />
		</vehicle>
		<vehicle id="50093" depart="46.50" type="pkw">
        <route edges="road_7_0_1 road_7_1_2 road_6_1_1 road_6_2_2 road_5_2_1 road_5_3_2 road_4_3_1 road_4_4_2 road_3_4_1 road_3_5_2 road_2_5_1 road_2_6_0" />
    </vehicle>
    <vehicle id="50094" depart="47.00" type="pkw">
        <route edges="road_2_3_1 road_2_4_0 road_3_4_3 road_3_3_0 road_4_3_3 road_4_2_3 road_4_1_3" />
    </vehicle>
    <vehicle id="50095" depart="47.50" type="pkw">
        <route edges="road_3_7_3 road_3_6_2 road_2_6_1 road_2_7_2" />
    </vehicle>
    <vehicle id="50096" depart="48.00" type="pkw">
        <route edges="road_2_6_0 road_3_6_0 road_4_6_0 road_5_6_0 road_6_6_3 road_6_5_0 road_7_5_3 road_7_4_0" />
    </vehicle>
    <vehicle id="50097" depart="48.50" type="pkw">
        <route edges="road_4_1_1 road_4_2_0 road_5_2_0 road_6_2_0 road_7_2_3 road_7_1_0" />
    </vehicle>
    <vehicle id="50098" depart="49.00" type="pkw">
        <route edges="road_4_6_3 road_4_5_2 road_3_5_3 road_3_4_2 road_2_4_3 road_2_3_2 road_1_3_1" />
    </vehicle>
    <vehicle id="50099" depart="49.50" type="pkw">
        <route edges="road_8_7_2 road_7_7_3 road_7_6_2 road_6_6_3" />
    </vehicle>
    <vehicle id="50100" depart="50.00" type="pkw">
        <route edges="road_8_1_2 road_7_1_1 road_7_2_1 road_7_3_1 road_7_4_1" />
    </vehicle>
    <vehicle depart="50" id="73" type="pkw">
			<route edges="road_1_0_1 road_1_1_1 road_1_2_0 road_2_2_0 road_3_2_0 road_4_2_0 road_5_2_0 road_6_2_0 road_7_2_1 road_7_3_1 road_7_4_0" />
		</vehicle>
		<vehicle id="50101" depart="50.50" type="pkw">
        <route edges="road_6_7_3 road_6_6_2 road_5_6_3 road_5_5_2 road_4_5_3 road_4_4_2 road_3_4_3 road_3_3_2 road_2_3_3 road_2_2_0" />
    </vehicle>
    <vehicle id="50102" depart="51.00" type="pkw">
        <route edges="road_4_3_3 road_4_2_2 road_3_2_1 road_3_3_2 road_2_3_1 road_2_4_1" />
    </vehicle>
    <vehicle id="50103" depart="51.50" type="pkw">
        <route edges="road_3_6_2 road_2_6_3 road_2_5_3 road_2_4_3 road_2_3_2 road_1_3_3" />
    </vehicle>
    <vehicle id="50104" depart="52.00" type="pkw">
        <route edges="road_3_5_2 road_2_5_1 road_2_6_0 road_3_6_1 road_3_7_0 road_4_7_0 road_5_7_0 road_6_7_0 road_7_7_1" />
    </vehicle>
    <vehicle id="50105" depart="52.50" type="pkw">
        <route edges="road_2_6_3 road_2_5_0 road_3_5_0 road_4_5_0 road_5_5_3 road_5_4_0 road_6_4_1" />
    </vehicle>
    <vehicle id="50106" depart="53.00" type="pkw">
        <route edges="road_4_2_1 road_4_3_1 road_4_4_1 road_4_5_2 road_3_5_1 road_3_6_1 road_3_7_2" />
    </vehicle>
    <vehicle id="50107" depart="53.50" type="pkw">
        <route edges="road_7_7_3" />
    </vehicle>
    <vehicle id="50108" depart="54.00" type="pkw">
        <route edges="road_4_7_0 road_5_7_3 road_5_6_3 road_5_5_0 road_6_5_3 road_6_4_3 road_6_3_3 road_6_2_3 road_6_1_0" />
    </vehicle>
    <vehicle id="50109" depart="54.50" type="pkw">
        <route edges="road_2_1_1 road_2_2_0 road_3_2_3 road_3_1_2" />
    </vehicle>
    <vehicle id="50110" depart="55.00" type="pkw">
        <route edges="road_8_1_2 road_7_1_2 road_6_1_2 road_5_1_1" />
    </vehicle>
    <vehicle id="50111" depart="55.50" type="pkw">
        <route edges="road_4_6_2 road_3_6_3 road_3_5_0 road_4_5_3 road_4_4_0 road_5_4_3 road_5_3_0 road_6_3_3 road_6_2_2" />
    </vehicle>
    <vehicle id="50112" depart="56.00" type="pkw">
        <route edges="road_1_2_1 road_1_3_0 road_2_3_0 road_3_3_0 road_4_3_3 road_4_2_0 road_5_2_3 road_5_1_2" />
    </vehicle>
    <vehicle id="50113" depart="56.50" type="pkw">
        <route edges="road_4_4_2 road_3_4_1 road_3_5_0 road_4_5_1 road_4_6_0 road_5_6_1 road_5_7_0 road_6_7_3" />
    </vehicle>
    <vehicle id="50114" depart="57.00" type="pkw">
        <route edges="road_2_1_1 road_2_2_0 road_3_2_1 road_3_3_0 road_4_3_1 road_4_4_0 road_5_4_1 road_5_5_0 road_6_5_1 road_6_6_0 road_7_6_0" />
    </vehicle>
    <vehicle id="50115" depart="57.50" type="pkw">
        <route edges="road_1_3_3 road_1_2_0 road_2_2_1 road_2_3_0" />
    </vehicle>
    <vehicle id="50116" depart="58.00" type="pkw">
        <route edges="road_5_2_0 road_6_2_1 road_6_3_2 road_5_3_1 road_5_4_1 road_5_5_1 road_5_6_0" />
    </vehicle>
    <vehicle id="50117" depart="58.50" type="pkw">
        <route edges="road_2_5_2 road_1_5_1 road_1_6_2 road_0_6_0 road_1_6_3" />
    </vehicle>
    <vehicle id="50118" depart="59.00" type="pkw">
        <route edges="road_7_3_1 road_7_4_2 road_6_4_2 road_5_4_2 road_4_4_1 road_4_5_2 road_3_5_2 road_2_5_1 road_2_6_0" />
    </vehicle>
    <vehicle id="50119" depart="59.50" type="pkw">
        <route edges="road_5_2_0 road_6_2_1 road_6_3_2 road_5_3_1" />
    </vehicle>
    <vehicle id="50120" depart="60.00" type="pkw">
        <route edges="road_3_7_3 road_3_6_0 road_4_6_3 road_4_5_0 road_5_5_3 road_5_4_3 road_5_3_3 road_5_2_3 road_5_1_2" />
    </vehicle>
    <vehicle depart="60" id="3" type="pkw">
			<route edges="road_5_8_3 road_5_7_3 road_5_6_3 road_5_5_3 road_5_4_3 road_5_3_3 road_5_2_3 road_5_1_3" />
		</vehicle>
		<vehicle depart="60" id="84" type="pkw">
			<route edges="road_1_0_1 road_1_1_1 road_1_2_1 road_1_3_1 road_1_4_1 road_1_5_1 road_1_6_1 road_1_7_1" />
		</vehicle>
		<vehicle depart="60" id="85" type="pkw">
			<route edges="road_2_0_1 road_2_1_2 road_1_1_3" />
		</vehicle>
		<vehicle depart="60" id="86" type="pkw">
			<route edges="road_3_0_1 road_3_1_2 road_2_1_1 road_2_2_0 road_3_2_0 road_4_2_0 road_5_2_3 road_5_1_2 road_4_1_3" />
		</vehicle>
		<vehicle depart="60" id="87" type="pkw">
			<route edges="road_4_0_1 road_4_1_2 road_3_1_2 road_2_1_2 road_1_1_3" />
		</vehicle>
		<vehicle depart="60" id="88" type="pkw">
			<route edges="road_5_0_1 road_5_1_2 road_4_1_2 road_3_1_2 road_2_1_3" />
		</vehicle>
		<vehicle depart="60" id="89" type="pkw">
			<route edges="road_6_0_1 road_6_1_2 road_5_1_2 road_4_1_2 road_3_1_3" />
		</vehicle>
		<vehicle depart="60" id="91" type="pkw">
			<route edges="road_0_2_0 road_1_2_0 road_2_2_3 road_2_1_2 road_1_1_3" />
		</vehicle>
		<vehicle depart="60" id="103" type="pkw">
			<route edges="road_0_4_0 road_1_4_1 road_1_5_1 road_1_6_1 road_1_7_1" />
		</vehicle>
		<vehicle depart="60" id="108" type="pkw">
			<route edges="road_2_0_1 road_2_1_2 road_1_1_1 road_1_2_1 road_1_3_1 road_1_4_1 road_1_5_1 road_1_6_1 road_1_7_1" />
		</vehicle>
		<vehicle id="50121" depart="60.50" type="pkw">
        <route edges="road_4_5_2 road_3_5_3 road_3_4_0 road_4_4_0 road_5_4_0 road_6_4_0 road_7_4_3" />
    </vehicle>
    <vehicle id="50122" depart="61.00" type="pkw">
        <route edges="road_2_4_0 road_3_4_0 road_4_4_3 road_4_3_0 road_5_3_3 road_5_2_0 road_6_2_3 road_6_1_0" />
    </vehicle>
    <vehicle id="50123" depart="61.50" type="pkw">
        <route edges="road_2_5_2 road_1_5_1 road_1_6_0 road_2_6_0 road_3_6_1" />
    </vehicle>
    <vehicle id="50124" depart="62.00" type="pkw">
        <route edges="road_5_5_3 road_5_4_3 road_5_3_2 road_4_3_3 road_4_2_2 road_3_2_3 road_3_1_2" />
    </vehicle>
    <vehicle depart="62" id="110" type="pkw">
			<route edges="road_8_2_2 road_7_2_3 road_7_1_3" />
		</vehicle>
		<vehicle depart="62" id="111" type="pkw">
			<route edges="road_8_6_2 road_7_6_3 road_7_5_2 road_6_5_2 road_5_5_2 road_4_5_2 road_3_5_3 road_3_4_3 road_3_3_3 road_3_2_3 road_3_1_2 road_2_1_2 road_1_1_3" />
		</vehicle>
		<vehicle depart="62" id="122" type="pkw">
			<route edges="road_1_0_1 road_1_1_1 road_1_2_0 road_2_2_1 road_2_3_1 road_2_4_1 road_2_5_1 road_2_6_1 road_2_7_1" />
		</vehicle>
		<vehicle depart="62" id="123" type="pkw">
			<route edges="road_2_0_1 road_2_1_1 road_2_2_0 road_3_2_0 road_4_2_0 road_5_2_3 road_5_1_2 road_4_1_3" />
		</vehicle>
		<vehicle depart="62" id="124" type="pkw">
			<route edges="road_3_0_1 road_3_1_2 road_2_1_1 road_2_2_1 road_2_3_1 road_2_4_1 road_2_5_1 road_2_6_1 road_2_7_1" />
		</vehicle>
		<vehicle depart="62" id="125" type="pkw">
			<route edges="road_4_0_1 road_4_1_2 road_3_1_2 road_2_1_2 road_1_1_3" />
		</vehicle>
		<vehicle depart="62" id="126" type="pkw">
			<route edges="road_5_0_1 road_5_1_2 road_4_1_2 road_3_1_2 road_2_1_2 road_1_1_1 road_1_2_1 road_1_3_1 road_1_4_1 road_1_5_1 road_1_6_1 road_1_7_1" />
		</vehicle>
		<vehicle depart="62" id="127" type="pkw">
			<route edges="road_6_0_1 road_6_1_2 road_5_1_2 road_4_1_2 road_3_1_3" />
		</vehicle>
		<vehicle depart="62" id="131" type="pkw">
			<route edges="road_0_5_0 road_1_5_1 road_1_6_1 road_1_7_1" />
		</vehicle>
		<vehicle depart="62" id="145" type="pkw">
			<route edges="road_2_0_1 road_2_1_2 road_1_1_1 road_1_2_1 road_1_3_1 road_1_4_1 road_1_5_2" />
		</vehicle>
		<vehicle id="50125" depart="62.50" type="pkw">
        <route edges="road_3_2_1 road_3_3_0 road_4_3_0 road_5_3_3 road_5_2_0 road_6_2_3" />
    </vehicle>
    <vehicle id="50126" depart="63.00" type="pkw">
        <route edges="road_1_3_1 road_1_4_0 road_2_4_3 road_2_3_0 road_3_3_3 road_3_2_0 road_4_2_1" />
    </vehicle>
    <vehicle depart="63" id="147" type="pkw">
			<route edges="road_2_0_1 road_2_1_2 road_1_1_3" />
		</vehicle>
		<vehicle depart="63" id="148" type="pkw">
			<route edges="road_3_0_1 road_3_1_2 road_2_1_3" />
		</vehicle>
		<vehicle depart="63" id="149" type="pkw">
			<route edges="road_4_0_1 road_4_1_2 road_3_1_2 road_2_1_2 road_1_1_1 road_1_2_1 road_1_3_1 road_1_4_1 road_1_5_1 road_1_6_1 road_1_7_1" />
		</vehicle>
		<vehicle id="50127" depart="63.50" type="pkw">
        <route edges="road_8_7_2 road_7_7_3" />
    </vehicle>
    <vehicle id="50128" depart="64.00" type="pkw">
        <route edges="road_1_3_1 road_1_4_0 road_2_4_1" />
    </vehicle>
    <vehicle id="50129" depart="64.50" type="pkw">
        <route edges="road_2_6_3 road_2_5_0 road_3_5_0 road_4_5_0 road_5_5_0 road_6_5_0 road_7_5_3 road_7_4_2" />
    </vehicle>
    <vehicle id="50130" depart="65.00" type="pkw">
        <route edges="road_7_2_2 road_6_2_1 road_6_3_0 road_7_3_3 road_7_2_0" />
    </vehicle>
    <vehicle depart="65" id="152" type="pkw">
			<route edges="road_1_0_1 road_1_1_1 road_1_2_0 road_2_2_0 road_3_2_3 road_3_1_3" />
		</vehicle>
		<vehicle id="50131" depart="65.50" type="pkw">
        <route edges="road_3_5_0 road_4_5_3 road_4_4_3 road_4_3_2 road_3_3_3 road_3_2_2 road_2_2_3 road_2_1_2" />
    </vehicle>
    <vehicle id="50132" depart="66.00" type="pkw">
        <route edges="road_6_6_3 road_6_5_2 road_5_5_1 road_5_6_1 road_5_7_1" />
    </vehicle>
    <vehicle depart="66" id="155" type="pkw">
			<route edges="road_1_0_1 road_1_1_1 road_1_2_1 road_1_3_1 road_1_4_1 road_1_5_1 road_1_6_1 road_1_7_1" />
		</vehicle>
		<vehicle depart="66" id="156" type="pkw">