<routes xmlns:xsi="http://www.w3.org/2001/XMLSchema-instance" xsi:noNamespaceSchemaLocation="http://sumo.dlr.de/xsd/routes_file.xsd">
		<vType accel="2.0" decel="4.5" id="pkw" length="5.0" maxSpeed="11.111" minGap="2.5" width="2.0" jmIgnoreJunctionFoeProb="0.4"/>
		<vehicle depart="0" id="0">
			<route edges="road_8_2_2 road_7_2_3 road_7_1_3" />
		</vehicle>
		<vehicle depart="0" id="1">
			<route edges="road_8_6_2 road_7_6_3 road_7_5_2 road_6_5_2 road_5_5_2 road_4_5_2 road_3_5_3 road_3_4_3 road_3_3_3 road_3_2_3 road_3_1_2 road_2_1_2 road_1_1_3" />
		</vehicle>
		<vehicle depart="0" id="12">
			<route edges="road_1_0_1 road_1_1_1 road_1_2_0 road_2_2_0 road_3_2_3 road_3_1_3" />
		</vehicle>
		<vehicle depart="0" id="13">
			<route edges="road_2_0_1 road_2_1_1 road_2_2_0 road_3_2_0 road_4_2_0 road_5_2_3 road_5_1_2 road_4_1_3" />
		</vehicle>
		<vehicle depart="0" id="14">
			<route edges="road_3_0_1 road_3_1_2 road_2_1_1 road_2_2_1 road_2_3_1 road_2_4_1 road_2_5_1 road_2_6_1 road_2_7_1" />
		</vehicle>
		<vehicle depart="0" id="15">
			<route edges="road_4_0_1 road_4_1_2 road_3_1_2 road_2_1_2 road_1_1_3" />
		</vehicle>
		<vehicle depart="0" id="16">
			<route edges="road_5_0_1 road_5_1_2 road_4_1_2 road_3_1_2 road_2_1_2 road_1_1_1 road_1_2_1 road_1_3_1 road_1_4_1 road_1_5_1 road_1_6_1 road_1_7_1" />
		</vehicle>
		<vehicle depart="0" id="17">
			<route edges="road_6_0_1 road_6_1_2 road_5_1_2 road_4_1_2 road_3_1_3" />
		</vehicle>
		<vehicle depart="0" id="21">
			<route edges="road_0_5_0 road_1_5_1 road_1_6_0 road_2_6_0 road_3_6_0 road_4_6_0 road_5_6_0 road_6_6_0 road_7_6_1 road_7_7_1" />
		</vehicle>
		<vehicle depart="0" id="35">
			<route edges="road_2_0_1 road_2_1_2 road_1_1_1 road_1_2_1 road_1_3_1 road_1_4_1 road_1_5_2" />
		</vehicle>
		<vehicle depart="1" id="37">
			<route edges="road_2_0_1 road_2_1_2 road_1_1_3" />
		</vehicle>
		<vehicle depart="1" id="38">
			<route edges="road_3_0_1 road_3_1_2 road_2_1_3" />
		</vehicle>
		<vehicle depart="1" id="39">
			<route edges="road_4_0_1 road_4_1_2 road_3_1_2 road_2_1_2 road_1_1_1 road_1_2_1 road_1_3_1 road_1_4_1 road_1_5_1 road_1_6_1 road_1_7_1" />
		</vehicle>
		<vehicle depart="3" id="41">
			<route edges="road_1_0_1 road_1_1_1 road_1_2_0 road_2_2_0 road_3_2_3 road_3_1_2 road_2_1_3" />
		</vehicle>
		<vehicle depart="10" id="45">
			<route edges="road_1_0_1 road_1_1_1 road_1_2_1 road_1_3_1 road_1_4_1 road_1_5_1 road_1_6_1 road_1_7_1" />
		</vehicle>
		<vehicle depart="10" id="46">
			<route edges="road_0_5_0 road_1_5_1 road_1_6_0 road_2_6_3 road_2_5_3 road_2_4_3 road_2_3_3 road_2_2_3 road_2_1_2 road_1_1_3" />
		</vehicle>
		<vehicle depart="12" id="48">
			<route edges="road_4_0_1 road_4_1_1 road_4_2_0 road_5_2_0 road_6_2_0 road_7_2_1 road_7_3_1 road_7_4_1 road_7_5_1 road_7_6_1 road_7_7_1" />
		</vehicle>
		<vehicle depart="13" id="49">
			<route edges="road_1_0_1 road_1_1_1 road_1_2_1 road_1_3_1 road_1_4_1 road_1_5_1 road_1_6_1 road_1_7_1" />
		</vehicle>
		<vehicle depart="15" id="50">
			<route edges="road_1_0_1 road_1_1_1 road_1_2_1 road_1_3_1 road_1_4_1 road_1_5_1 road_1_6_1 road_1_7_1" />
		</vehicle>
		<vehicle depart="28" id="60">
			<route edges="road_1_0_1 road_1_1_1 road_1_2_0 road_2_2_0 road_3_2_3 road_3_1_3" />
		</vehicle>
		<vehicle depart="39" id="62">
			<route edges="road_3_0_1 road_3_1_2 road_2_1_2 road_1_1_3" />
		</vehicle>
		<vehicle depart="40" id="2">
			<route edges="road_5_8_3 road_5_7_3 road_5_6_3 road_5_5_3 road_5_4_3 road_5_3_3 road_5_2_3 road_5_1_3" />
		</vehicle>
		<vehicle depart="43" id="66">
			<route edges="road_3_0_1 road_3_1_2 road_2_1_1 road_2_2_0 road_3_2_0 road_4_2_0 road_5_2_3 road_5_1_2 road_4_1_3" />
		</vehicle>
		<vehicle depart="46" id="69">
			<route edges="road_3_0_1 road_3_1_2 road_2_1_2 road_1_1_3" />
		</vehicle>
		<vehicle depart="50" id="73">
			<route edges="road_1_0_1 road_1_1_1 road_1_2_0 road_2_2_0 road_3_2_0 road_4_2_0 road_5_2_0 road_6_2_0 road_7_2_1 road_7_3_1 road_7_4_0" />
		</vehicle>
		<vehicle depart="60" id="3">
			<route edges="road_5_8_3 road_5_7_3 road_5_6_3 road_5_5_3 road_5_4_3 road_5_3_3 road_5_2_3 road_5_1_3" />
		</vehicle>
		<vehicle depart="60" id="84">
			<route edges="road_1_0_1 road_1_1_1 road_1_2_1 road_1_3_1 road_1_4_1 road_1_5_1 road_1_6_1 road_1_7_1" />
		</vehicle>
		<vehicle depart="60" id="85">
			<route edges="road_2_0_1 road_2_1_2 road_1_1_3" />
		</vehicle>
		<vehicle depart="60" id="86">
			<route edges="road_3_0_1 road_3_1_2 road_2_1_1 road_2_2_0 road_3_2_0 road_4_2_0 road_5_2_3 road_5_1_2 road_4_1_3" />
		</vehicle>
		<vehicle depart="60" id="87">
			<route edges="road_4_0_1 road_4_1_2 road_3_1_2 road_2_1_2 road_1_1_3" />
		</vehicle>
		<vehicle depart="60" id="88">
			<route edges="road_5_0_1 road_5_1_2 road_4_1_2 road_3_1_2 road_2_1_3" />
		</vehicle>
		<vehicle depart="60" id="89">
			<route edges="road_6_0_1 road_6_1_2 road_5_1_2 road_4_1_2 road_3_1_3" />
		</vehicle>
		<vehicle depart="60" id="91">
			<route edges="road_0_2_0 road_1_2_0 road_2_2_3 road_2_1_2 road_1_1_3" />
		</vehicle>
		<vehicle depart="60" id="103">
			<route edges="road_0_4_0 road_1_4_1 road_1_5_1 road_1_6_1 road_1_7_1" />
		</vehicle>
		<vehicle depart="60" id="108">
			<route edges="road_2_0_1 road_2_1_2 road_1_1_1 road_1_2_1 road_1_3_1 road_1_4_1 road_1_5_1 road_1_6_1 road_1_7_1" />
		</vehicle>
		<vehicle depart="62" id="110">
			<route edges="road_8_2_2 road_7_2_3 road_7_1_3" />
		</vehicle>
		<vehicle depart="62" id="111">
			<route edges="road_8_6_2 road_7_6_3 road_7_5_2 road_6_5_2 road_5_5_2 road_4_5_2 road_3_5_3 road_3_4_3 road_3_3_3 road_3_2_3 road_3_1_2 road_2_1_2 road_1_1_3" />
		</vehicle>
		<vehicle depart="62" id="122">
			<route edges="road_1_0_1 road_1_1_1 road_1_2_0 road_2_2_1 road_2_3_1 road_2_4_1 road_2_5_1 road_2_6_1 road_2_7_1" />
		</vehicle>
		<vehicle depart="62" id="123">
			<route edges="road_2_0_1 road_2_1_1 road_2_2_0 road_3_2_0 road_4_2_0 road_5_2_3 road_5_1_2 road_4_1_3" />
		</vehicle>
		<vehicle depart="62" id="124">
			<route edges="road_3_0_1 road_3_1_2 road_2_1_1 road_2_2_1 road_2_3_1 road_2_4_1 road_2_5_1 road_2_6_1 road_2_7_1" />
		</vehicle>
		<vehicle depart="62" id="125">
			<route edges="road_4_0_1 road_4_1_2 road_3_1_2 road_2_1_2 road_1_1_3" />
		</vehicle>
		<vehicle depart="62" id="126">
			<route edges="road_5_0_1 road_5_1_2 road_4_1_2 road_3_1_2 road_2_1_2 road_1_1_1 road_1_2_1 road_1_3_1 road_1_4_1 road_1_5_1 road_1_6_1 road_1_7_1" />
		</vehicle>
		<vehicle depart="62" id="127">
			<route edges="road_6_0_1 road_6_1_2 road_5_1_2 road_4_1_2 road_3_1_3" />
		</vehicle>
		<vehicle depart="62" id="131">
			<route edges="road_0_5_0 road_1_5_1 road_1_6_1 road_1_7_1" />
		</vehicle>
		<vehicle depart="62" id="145">
			<route edges="road_2_0_1 road_2_1_2 road_1_1_1 road_1_2_1 road_1_3_1 road_1_4_1 road_1_5_2" />
		</vehicle>
		<vehicle depart="63" id="147">
			<route edges="road_2_0_1 road_2_1_2 road_1_1_3" />
		</vehicle>
		<vehicle depart="63" id="148">
			<route edges="road_3_0_1 road_3_1_2 road_2_1_3" />
		</vehicle>
		<vehicle depart="63" id="149">
			<route edges="road_4_0_1 road_4_1_2 road_3_1_2 road_2_1_2 road_1_1_1 road_1_2_1 road_1_3_1 road_1_4_1 road_1_5_1 road_1_6_1 road_1_7_1" />
		</vehicle>
		<vehicle depart="65" id="152">
			<route edges="road_1_0_1 road_1_1_1 road_1_2_0 road_2_2_0 road_3_2_3 road_3_1_3" />
		</vehicle>
		<vehicle depart="66" id="155">
			<route edges="road_1_0_1 road_1_1_1 road_1_2_1 road_1_3_1 road_1_4_1 road_1_5_1 road_1_6_1 road_1_7_1" />
		</vehicle>
		<vehicle depart="66" id="156">
			<route edges="road_5_0_1 road_5_1_2 road_4_1_2 road_3_1_2 road_2_1_2 road_1_1_1 road_1_2_1 road_1_3_1 road_1_4_1 road_1_5_1 road_1_6_2" />
		</vehicle>
		<vehicle depart="70" id="23">
			<route edges="road_2_8_3 road_2_7_3 road_2_6_3 road_2_5_3 road_2_4_3 road_2_3_3 road_2_2_3 road_2_1_2 road_1_1_3" />
		</vehicle>
		<vehicle depart="70" id="161">
			<route edges="road_1_0_1 road_1_1_1 road_1_2_0 road_2_2_3 road_2_1_3" />
		</vehicle>
		<vehicle depart="71" id="162">
			<route edges="road_2_0_1 road_2_1_2 road_1_1_1 road_1_2_1 road_1_3_1 road_1_4_1 road_1_5_1 road_1_6_1 road_1_7_1" />
		</vehicle>
		<vehicle depart="72" id="163">
			<route edges="road_1_0_1 road_1_1_1 road_1_2_0 road_2_2_0 road_3_2_0 road_4_2_0 road_5_2_3 road_5_1_2 road_4_1_3" />
		</vehicle>
		<vehicle depart="72" id="164">
			<route edges="road_0_5_0 road_1_5_1 road_1_6_0 road_2_6_3 road_2_5_3 road_2_4_3 road_2_3_3 road_2_2_3 road_2_1_2 road_1_1_3" />
		</vehicle>
		<vehicle depart="74" id="166">
			<route edges="road_4_0_1 road_4_1_1 road_4_2_0 road_5_2_0 road_6_2_0 road_7_2_1 road_7_3_1 road_7_4_1 road_7_5_1 road_7_6_1 road_7_7_1" />
		</vehicle>
		<vehicle depart="75" id="167">
			<route edges="road_1_0_1 road_1_1_1 road_1_2_1 road_1_3_1 road_1_4_1 road_1_5_1 road_1_6_1 road_1_7_1" />
		</vehicle>
		<vehicle depart="76" id="168">
			<route edges="road_5_0_1 road_5_1_2 road_4_1_2 road_3_1_2 road_2_1_2 road_1_1_1 road_1_2_2" />
		</vehicle>
		<vehicle depart="77" id="169">
			<route edges="road_1_0_1 road_1_1_1 road_1_2_1 road_1_3_1 road_1_4_1 road_1_5_1 road_1_6_1 road_1_7_1" />
		</vehicle>
		<vehicle depart="77" id="170">
			<route edges="road_2_0_1 road_2_1_1 road_2_2_0 road_3_2_0 road_4_2_0 road_5_2_0 road_6_2_0 road_7_2_1 road_7_3_1 road_7_4_1 road_7_5_1 road_7_6_1 road_7_7_1" />
		</vehicle>
		<vehicle depart="79" id="172">
			<route edges="road_0_6_0 road_1_6_0 road_2_6_0 road_3_6_0 road_4_6_0 road_5_6_0 road_6_6_0 road_7_6_1 road_7_7_1" />
		</vehicle>
		<vehicle depart="80" id="174">
			<route edges="road_1_0_1 road_1_1_1 road_1_2_1 road_1_3_2" />
		</vehicle>
		<vehicle depart="81" id="176">
			<route edges="road_8_5_2 road_7_5_2 road_6_5_2 road_5_5_2 road_4_5_2 road_3_5_2 road_2_5_2 road_1_5_1 road_1_6_1 road_1_7_1" />
		</vehicle>
		<vehicle depart="82" id="178">
			<route edges="road_4_0_1 road_4_1_2 road_3_1_2 road_2_1_2 road_1_1_1 road_1_2_1 road_1_3_1 road_1_4_1 road_1_5_2" />
		</vehicle>
		<vehicle depart="83" id="179">
			<route edges="road_3_0_1 road_3_1_2 road_2_1_2 road_1_1_3" />
		</vehicle>
		<vehicle depart="83" id="180">
			<route edges="road_0_3_0 road_1_3_0 road_2_3_3 road_2_2_0 road_3_2_0 road_4_2_0 road_5_2_3 road_5_1_3" />
		</vehicle>
		<vehicle depart="84" id="183">
			<route edges="road_1_0_1 road_1_1_1 road_1_2_0 road_2_2_0 road_3_2_3 road_3_1_3" />
		</vehicle>
		<vehicle depart="87" id="186">
			<route edges="road_1_0_1 road_1_1_1 road_1_2_1 road_1_3_1 road_1_4_1 road_1_5_1 road_1_6_1 road_1_7_1" />
		</vehicle>
		<vehicle depart="90" id="4">
			<route edges="road_3_8_3 road_3_7_3 road_3_6_3 road_3_5_3 road_3_4_3 road_3_3_3 road_3_2_3 road_3_1_2 road_2_1_3" />
		</vehicle>
		<vehicle depart="90" id="193">
			<route edges="road_1_0_1 road_1_1_1 road_1_2_1 road_1_3_1 road_1_4_1 road_1_5_1 road_1_6_1 road_1_7_1" />
		</vehicle>
		<vehicle depart="91" id="195">
			<route edges="road_0_3_0 road_1_3_1 road_1_4_1 road_1_5_1 road_1_6_1 road_1_7_2" />
		</vehicle>
		<vehicle depart="93" id="197">
			<route edges="road_1_0_1 road_1_1_1 road_1_2_1 road_1_3_1 road_1_4_1 road_1_5_1 road_1_6_2" />
		</vehicle>
		<vehicle depart="97" id="201">
			<route edges="road_6_0_1 road_6_1_1 road_6_2_0 road_7_2_1 road_7_3_1 road_7_4_1 road_7_5_1 road_7_6_0" />
		</vehicle>
		<vehicle depart="100" id="5">
			<route edges="road_3_8_3 road_3_7_3 road_3_6_3 road_3_5_3 road_3_4_3 road_3_3_3 road_3_2_3 road_3_1_2 road_2_1_2 road_1_1_3" />
		</vehicle>
		<vehicle depart="100" id="205">
			<route edges="road_1_0_1 road_1_1_1 road_1_2_1 road_1_3_1 road_1_4_1 road_1_5_1 road_1_6_1 road_1_7_1" />
		</vehicle>
		<vehicle depart="101" id="207">
			<route edges="road_3_0_1 road_3_1_2 road_2_1_2 road_1_1_3" />
		</vehicle>
		<vehicle depart="105" id="212">
			<route edges="road_3_0_1 road_3_1_2 road_2_1_1 road_2_2_0 road_3_2_0 road_4_2_0 road_5_2_3 road_5_1_2 road_4_1_3" />
		</vehicle>
		<vehicle depart="106" id="213">
			<route edges="road_1_0_1 road_1_1_1 road_1_2_1 road_1_3_1 road_1_4_1 road_1_5_1 road_1_6_1 road_1_7_1" />
		</vehicle>
		<vehicle depart="107" id="215">
			<route edges="road_8_2_2 road_7_2_1 road_7_3_1 road_7_4_1 road_7_5_2 road_6_5_2 road_5_5_2 road_4_5_2 road_3_5_2 road_2_5_2 road_1_5_1 road_1_6_1 road_1_7_1" />
		</vehicle>
		<vehicle depart="107" id="216">
			<route edges="road_3_0_1 road_3_1_2 road_2_1_1 road_2_2_0 road_3_2_0 road_4_2_0 road_5_2_3 road_5_1_3" />
		</vehicle>
		<vehicle depart="108" id="218">
			<route edges="road_3_0_1 road_3_1_2 road_2_1_2 road_1_1_3" />
		</vehicle>
		<vehicle depart="109" id="220">
			<route edges="road_3_0_1 road_3_1_2 road_2_1_2 road_1_1_1 road_1_2_1 road_1_3_1 road_1_4_1 road_1_5_1 road_1_6_1 road_1_7_1" />
		</vehicle>
		<vehicle depart="110" id="6">
			<route edges="road_3_8_3 road_3_7_3 road_3_6_3 road_3_5_3 road_3_4_3 road_3_3_3 road_3_2_3 road_3_1_3" />
		</vehicle>
		<vehicle depart="110" id="31">
			<route edges="road_2_8_3 road_2_7_3 road_2_6_3 road_2_5_3 road_2_4_3 road_2_3_3 road_2_2_3 road_2_1_2 road_1_1_3" />
		</vehicle>
		<vehicle depart="110" id="221">
			<route edges="road_1_0_1 road_1_1_1 road_1_2_0 road_2_2_0 road_3_2_0 road_4_2_0 road_5_2_0 road_6_2_0 road_7_2_1 road_7_3_1 road_7_4_1 road_7_5_1 road_7_6_1 road_7_7_1" />
		</vehicle>
		<vehicle depart="111" id="224">
			<route edges="road_1_0_1 road_1_1_1 road_1_2_1 road_1_3_1 road_1_4_1 road_1_5_1 road_1_6_1 road_1_7_1" />
		</vehicle>
		<vehicle depart="112" id="228">
			<route edges="road_1_0_1 road_1_1_1 road_1_2_0 road_2_2_0 road_3_2_0 road_4_2_0 road_5_2_0 road_6_2_0 road_7_2_1 road_7_3_1 road_7_4_0" />
		</vehicle>
		<vehicle depart="114" id="230">
			<route edges="road_1_0_1 road_1_1_1 road_1_2_1 road_1_3_2" />
		</vehicle>
		<vehicle depart="115" id="236">
			<route edges="road_2_0_1 road_2_1_2 road_1_1_3" />
		</vehicle>
		<vehicle depart="117" id="242">
			<route edges="road_1_0_1 road_1_1_1 road_1_2_1 road_1_3_1 road_1_4_1 road_1_5_1 road_1_6_1 road_1_7_1" />
		</vehicle>
		<vehicle depart="118" id="247">
			<route edges="road_2_0_1 road_2_1_2 road_1_1_3" />
		</vehicle>
		<vehicle depart="120" id="248">
			<route edges="road_8_6_2 road_7_6_3 road_7_5_2 road_6_5_2 road_5_5_2 road_4_5_2 road_3_5_3 road_3_4_3 road_3_3_3 road_3_2_3 road_3_1_2 road_2_1_2 road_1_1_3" />
		</vehicle>
		<vehicle depart="120" id="249">
			<route edges="road_8_7_2 road_7_7_2 road_6_7_2 road_5_7_3 road_5_6_3 road_5_5_2 road_4_5_2 road_3_5_3 road_3_4_3 road_3_3_3 road_3_2_3 road_3_1_2 road_2_1_3" />
		</vehicle>
		<vehicle depart="120" id="257">
			<route edges="road_1_0_1 road_1_1_1 road_1_2_0 road_2_2_3 road_2_1_3" />
		</vehicle>
		<vehicle depart="120" id="258">
			<route edges="road_2_0_1 road_2_1_1 road_2_2_0 road_3_2_3 road_3_1_3" />
		</vehicle>
		<vehicle depart="120" id="259">
			<route edges="road_3_0_1 road_3_1_2 road_2_1_2 road_1_1_3" />
		</vehicle>
		<vehicle depart="120" id="260">
			<route edges="road_4_0_1 road_4_1_1 road_4_2_0 road_5_2_0 road_6_2_0 road_7_2_1 road_7_3_1 road_7_4_1 road_7_5_1 road_7_6_1 road_7_7_1" />
		</vehicle>
		<vehicle depart="120" id="261">
			<route edges="road_5_0_1 road_5_1_2 road_4_1_2 road_3_1_2 road_2_1_2 road_1_1_3" />
		</vehicle>
		<vehicle depart="120" id="262">
			<route edges="road_6_0_1 road_6_1_2 road_5_1_2 road_4_1_2 road_3_1_2 road_2_1_2 road_1_1_3" />
		</vehicle>
		<vehicle depart="120" id="263">
			<route edges="road_0_2_0 road_1_2_1 road_1_3_1 road_1_4_1 road_1_5_1 road_1_6_1 road_1_7_1" />
		</vehicle>
		<vehicle depart="120" id="265">
			<route edges="road_0_5_0 road_1_5_1 road_1_6_0 road_2_6_3 road_2_5_3 road_2_4_3 road_2_3_3 road_2_2_3 road_2_1_3" />
		</vehicle>
		<vehicle depart="120" id="273">
			<route edges="road_0_7_0 road_1_7_1" />
		</vehicle>
		<vehicle depart="120" id="276">
			<route edges="road_2_0_1 road_2_1_2 road_1_1_1 road_1_2_0 road_2_2_1 road_2_3_1 road_2_4_1 road_2_5_1 road_2_6_1 road_2_7_1" />
		</vehicle>
		<vehicle depart="122" id="112">
			<route edges="road_3_8_3 road_3_7_3 road_3_6_3 road_3_5_3 road_3_4_3 road_3_3_3 road_3_2_3 road_3_1_2 road_2_1_2 road_1_1_3" />
		</vehicle>
		<vehicle depart="122" id="113">
			<route edges="road_5_8_3 road_5_7_3 road_5_6_3 road_5_5_3 road_5_4_3 road_5_3_3 road_5_2_3 road_5_1_3" />
		</vehicle>
		<vehicle depart="122" id="285">
			<route edges="road_1_0_1 road_1_1_1 road_1_2_1 road_1_3_1 road_1_4_1 road_1_5_1 road_1_6_1 road_1_7_1" />
		</vehicle>
		<vehicle depart="122" id="286">
			<route edges="road_2_0_1 road_2_1_2 road_1_1_3" />
		</vehicle>
		<vehicle depart="122" id="287">
			<route edges="road_3_0_1 road_3_1_2 road_2_1_1 road_2_2_0 road_3_2_0 road_4_2_0 road_5_2_3 road_5_1_2 road_4_1_3" />
		</vehicle>
		<vehicle depart="122" id="288">
			<route edges="road_4_0_1 road_4_1_2 road_3_1_2 road_2_1_2 road_1_1_3" />
		</vehicle>
		<vehicle depart="122" id="289">
			<route edges="road_5_0_1 road_5_1_2 road_4_1_2 road_3_1_2 road_2_1_2 road_1_1_3" />
		</vehicle>
		<vehicle depart="122" id="290">
			<route edges="road_6_0_1 road_6_1_1 road_6_2_1 road_6_3_1 road_6_4_1 road_6_5_2 road_5_5_2 road_4_5_1 road_4_6_1 road_4_7_1" />
		</vehicle>
		<vehicle depart="122" id="292">
			<route edges="road_0_2_0 road_1_2_0 road_2_2_3 road_2_1_2 road_1_1_3" />
		</vehicle>
		<vehicle depart="122" id="304">
			<route edges="road_0_4_0 road_1_4_1 road_1_5_1 road_1_6_1 road_1_7_1" />
		</vehicle>
		<vehicle depart="122" id="310">
			<route edges="road_2_0_1 road_2_1_2 road_1_1_1 road_1_2_1 road_1_3_1 road_1_4_1 road_1_5_1 road_1_6_1 road_1_7_1" />
		</vehicle>
		<vehicle depart="124" id="313">
			<route edges="road_1_0_1 road_1_1_1 road_1_2_0 road_2_2_1 road_2_3_1 road_2_4_1 road_2_5_1 road_2_6_1 road_2_7_1" />
		</vehicle>
		<vehicle depart="124" id="314">
			<route edges="road_5_0_1 road_5_1_2 road_4_1_2 road_3_1_2 road_2_1_2 road_1_1_3" />
		</vehicle>
		<vehicle depart="125" id="234">
			<route edges="road_7_8_3 road_7_7_2 road_6_7_2 road_5_7_2 road_4_7_2 road_3_7_3 road_3_6_3 road_3_5_3 road_3_4_3 road_3_3_3 road_3_2_3 road_3_1_3" />
		</vehicle>
		<vehicle depart="128" id="320">
			<route edges="road_1_0_1 road_1_1_1 road_1_2_1 road_1_3_1 road_1_4_1 road_1_5_1 road_1_6_1 road_1_7_1" />
		</vehicle>
		<vehicle depart="128" id="321">
			<route edges="road_3_0_1 road_3_1_2 road_2_1_2 road_1_1_1 road_1_2_1 road_1_3_1 road_1_4_1 road_1_5_1 road_1_6_1 road_1_7_1" />
		</vehicle>
		<vehicle depart="128" id="322">
			<route edges="road_5_0_1 road_5_1_2 road_4_1_2 road_3_1_2 road_2_1_2 road_1_1_1 road_1_2_1 road_1_3_1 road_1_4_1 road_1_5_1 road_1_6_2" />
		</vehicle>
		<vehicle depart="130" id="79">
			<route edges="road_3_8_3 road_3_7_3 road_3_6_3 road_3_5_3 road_3_4_3 road_3_3_3 road_3_2_3 road_3_1_2 road_2_1_2 road_1_1_3" />
		</vehicle>
		<vehicle depart="130" id="250">
			<route edges="road_7_8_3 road_7_7_2 road_6_7_2 road_5_7_2 road_4_7_2 road_3_7_3 road_3_6_3 road_3_5_3 road_3_4_3 road_3_3_3 road_3_2_3 road_3_1_2 road_2_1_3" />
		</vehicle>
		<vehicle depart="132" id="133">
			<route edges="road_2_8_3 road_2_7_3 road_2_6_3 road_2_5_3 road_2_4_3 road_2_3_3 road_2_2_3 road_2_1_2 road_1_1_3" />
		</vehicle>
		<vehicle depart="132" id="326">
			<route edges="road_1_0_1 road_1_1_1 road_1_2_0 road_2_2_3 road_2_1_3" />
		</vehicle>
		<vehicle depart="133" id="328">
			<route edges="road_2_0_1 road_2_1_2 road_1_1_1 road_1_2_1 road_1_3_1 road_1_4_1 road_1_5_1 road_1_6_1 road_1_7_1" />
		</vehicle>
		<vehicle depart="136" id="330">
			<route edges="road_4_0_1 road_4_1_1 road_4_2_0 road_5_2_0 road_6_2_0 road_7_2_1 road_7_3_1 road_7_4_1 road_7_5_1 road_7_6_1 road_7_7_1" />
		</vehicle>
		<vehicle depart="137" id="331">
			<route edges="road_2_0_1 road_2_1_2 road_1_1_1 road_1_2_0 road_2_2_0 road_3_2_3 road_3_1_2 road_2_1_3" />
		</vehicle>
		<vehicle depart="138" id="333">
			<route edges="road_5_0_1 road_5_1_2 road_4_1_2 road_3_1_2 road_2_1_2 road_1_1_1 road_1_2_2" />
		</vehicle>
		<vehicle depart="139" id="334">
			<route edges="road_2_0_1 road_2_1_1 road_2_2_0 road_3_2_0 road_4_2_0 road_5_2_0 road_6_2_0 road_7_2_1 road_7_3_1 road_7_4_1 road_7_5_1 road_7_6_1 road_7_7_1" />
		</vehicle>
		<vehicle depart="140" id="104">
			<route edges="road_2_8_3 road_2_7_3 road_2_6_3 road_2_5_3 road_2_4_3 road_2_3_3 road_2_2_0 road_3_2_0 road_4_2_0 road_5_2_3 road_5_1_2 road_4_1_3" />
		</vehicle>
		<vehicle depart="141" id="335">
			<route edges="road_6_0_1 road_6_1_1 road_6_2_1 road_6_3_1 road_6_4_1 road_6_5_2 road_5_5_2 road_4_5_2 road_3_5_2 road_2_5_2 road_1_5_1 road_1_6_1 road_1_7_1" />
		</vehicle>
		<vehicle depart="141" id="336">
			<route edges="road_0_6_0 road_1_6_0 road_2_6_0 road_3_6_0 road_4_6_0 road_5_6_0 road_6_6_0 road_7_6_1 road_7_7_1" />
		</vehicle>
		<vehicle depart="142" id="338">
			<route edges="road_1_0_1 road_1_1_1 road_1_2_1 road_1_3_2" />
		</vehicle>
		<vehicle depart="142" id="339">
			<route edges="road_3_0_1 road_3_1_2 road_2_1_2 road_1_1_1 road_1_2_1 road_1_3_2" />
		</vehicle>
		<vehicle depart="143" id="341">
			<route edges="road_8_5_2 road_7_5_2 road_6_5_2 road_5_5_2 road_4_5_2 road_3_5_2 road_2_5_2 road_1_5_1 road_1_6_1 road_1_7_1" />
		</vehicle>
		<vehicle depart="143" id="343">
			<route edges="road_3_0_1 road_3_1_2 road_2_1_1 road_2_2_0 road_3_2_0 road_4_2_0 road_5_2_0 road_6_2_0 road_7_2_1 road_7_3_1 road_7_4_1 road_7_5_1 road_7_6_1 road_7_7_1" />
		</vehicle>
		<vehicle depart="143" id="344">
			<route edges="road_0_7_0 road_1_7_1" />
		</vehicle>
		<vehicle depart="144" id="67">
			<route edges="road_2_8_3 road_2_7_3 road_2_6_3 road_2_5_3 road_2_4_3 road_2_3_3 road_2_2_3 road_2_1_3" />
		</vehicle>
		<vehicle depart="144" id="346">
			<route edges="road_4_0_1 road_4_1_2 road_3_1_2 road_2_1_2 road_1_1_1 road_1_2_1 road_1_3_1 road_1_4_1 road_1_5_2" />
		</vehicle>
		<vehicle depart="145" id="347">
			<route edges="road_3_0_1 road_3_1_2 road_2_1_1 road_2_2_0 road_3_2_0 road_4_2_0 road_5_2_3 road_5_1_2 road_4_1_3" />
		</vehicle>
		<vehicle depart="145" id="348">
			<route edges="road_0_6_0 road_1_6_1 road_1_7_1" />
		</vehicle>
		<vehicle depart="145" id="350">
			<route edges="road_0_3_0 road_1_3_0 road_2_3_3 road_2_2_0 road_3_2_0 road_4_2_0 road_5_2_3 road_5_1_3" />
		</vehicle>
		<vehicle depart="146" id="353">
			<route edges="road_1_0_1 road_1_1_1 road_1_2_0 road_2_2_0 road_3_2_3 road_3_1_3" />
		</vehicle>
		<vehicle depart="147" id="355">
			<route edges="road_1_0_1 road_1_1_1 road_1_2_2" />
		</vehicle>
		<vehicle depart="147" id="356">
			<route edges="road_5_0_1 road_5_1_2 road_4_1_2 road_3_1_2 road_2_1_2 road_1_1_3" />
		</vehicle>
		<vehicle depart="148" id="358">
			<route edges="road_3_0_1 road_3_1_2 road_2_1_2 road_1_1_3" />
		</vehicle>
		<vehicle depart="149" id="359">
			<route edges="road_8_7_2 road_7_7_1" />
		</vehicle>
		<vehicle depart="149" id="360">
			<route edges="road_1_0_1 road_1_1_1 road_1_2_1 road_1_3_1 road_1_4_1 road_1_5_1 road_1_6_1 road_1_7_1" />
		</vehicle>
		<vehicle depart="150" id="7">
			<route edges="road_3_8_3 road_3_7_2 road_2_7_2 road_1_7_1" />
		</vehicle>
		<vehicle depart="152" id="114">
			<route edges="road_3_8_3 road_3_7_3 road_3_6_3 road_3_5_3 road_3_4_3 road_3_3_3 road_3_2_3 road_3_1_2 road_2_1_3" />
		</vehicle>
		<vehicle depart="152" id="366">
			<route edges="road_1_0_1 road_1_1_1 road_1_2_1 road_1_3_1 road_1_4_1 road_1_5_1 road_1_6_1 road_1_7_1" />
		</vehicle>
		<vehicle depart="153" id="368">
			<route edges="road_0_3_0 road_1_3_1 road_1_4_1 road_1_5_1 road_1_6_1 road_1_7_2" />
		</vehicle>
		<vehicle depart="154" id="370">
			<route edges="road_4_0_1 road_4_1_2 road_3_1_3" />
		</vehicle>
		<vehicle depart="155" id="372">
			<route edges="road_7_0_1 road_7_1_1 road_7_2_1 road_7_3_1 road_7_4_1 road_7_5_1 road_7_6_1 road_7_7_1" />
		</vehicle>
		<vehicle depart="155" id="373">
			<route edges="road_1_0_1 road_1_1_1 road_1_2_1 road_1_3_1 road_1_4_1 road_1_5_1 road_1_6_1 road_1_7_1" />
		</vehicle>
		<vehicle depart="159" id="380">
			<route edges="road_7_0_1 road_7_1_2 road_6_1_2 road_5_1_2 road_4_1_2 road_3_1_2 road_2_1_2 road_1_1_1 road_1_2_1 road_1_3_1 road_1_4_2" />
		</vehicle>
		<vehicle depart="159" id="381">
			<route edges="road_1_0_1 road_1_1_1 road_1_2_0 road_2_2_0 road_3_2_3 road_3_1_2 road_2_1_3" />
		</vehicle>
		<vehicle depart="159" id="382">
			<route edges="road_6_0_1 road_6_1_1 road_6_2_0 road_7_2_1 road_7_3_1 road_7_4_1 road_7_5_1 road_7_6_0" />
		</vehicle>
		<vehicle depart="160" id="94">
			<route edges="road_2_8_3 road_2_7_3 road_2_6_3 road_2_5_3 road_2_4_3 road_2_3_3 road_2_2_3 road_2_1_2 road_1_1_1 road_1_2_1 road_1_3_2" />
		</vehicle>
		<vehicle depart="162" id="115">
			<route edges="road_3_8_3 road_3_7_3 road_3_6_3 road_3_5_3 road_3_4_3 road_3_3_3 road_3_2_3 road_3_1_2 road_2_1_2 road_1_1_3" />
		</vehicle>
		<vehicle depart="162" id="130">
			<route edges="road_2_8_3 road_2_7_3 road_2_6_3 road_2_5_3 road_2_4_3 road_2_3_3 road_2_2_3 road_2_1_2 road_1_1_3" />
		</vehicle>
		<vehicle depart="162" id="388">
			<route edges="road_1_0_1 road_1_1_1 road_1_2_1 road_1_3_1 road_1_4_1 road_1_5_1 road_1_6_1 road_1_7_1" />
		</vehicle>
		<vehicle depart="164" id="390">
			<route edges="road_1_0_1 road_1_1_1 road_1_2_1 road_1_3_1 road_1_4_1 road_1_5_1 road_1_6_1 road_1_7_1" />
		</vehicle>
		<vehicle depart="167" id="44">
			<route edges="road_2_8_3 road_2_7_3 road_2_6_3 road_2_5_3 road_2_4_2 road_1_4_2" />
		</vehicle>
		<vehicle depart="167" id="393">
			<route edges="road_6_0_1 road_6_1_2 road_5_1_2 road_4_1_2 road_3_1_2 road_2_1_2 road_1_1_3" />
		</vehicle>
		<vehicle depart="168" id="395">
			<route edges="road_1_0_1 road_1_1_1 road_1_2_1 road_1_3_1 road_1_4_1 road_1_5_1 road_1_6_1 road_1_7_1" />
		</vehicle>
		<vehicle depart="168" id="396">
			<route edges="road_0_5_0 road_1_5_1 road_1_6_1 road_1_7_1" />
		</vehicle>
		<vehicle depart="169" id="397">
			<route edges="road_8_2_2 road_7_2_1 road_7_3_1 road_7_4_1 road_7_5_2 road_6_5_2 road_5_5_2 road_4_5_2 road_3_5_2 road_2_5_2 road_1_5_1 road_1_6_1 road_1_7_1" />
		</vehicle>
		<vehicle depart="169" id="398">
			<route edges="road_8_7_2 road_7_7_2 road_6_7_2 road_5_7_3 road_5_6_3 road_5_5_2 road_4_5_2 road_3_5_3 road_3_4_3 road_3_3_3 road_3_2_3 road_3_1_2 road_2_1_2 road_1_1_3" />
		</vehicle>
		<vehicle depart="169" id="401">
			<route edges="road_3_0_1 road_3_1_2 road_2_1_1 road_2_2_0 road_3_2_0 road_4_2_0 road_5_2_3 road_5_1_3" />
		</vehicle>
		<vehicle depart="170" id="33">
			<route edges="road_2_8_3 road_2_7_3 road_2_6_3 road_2_5_3 road_2_4_3 road_2_3_3 road_2_2_0 road_3_2_0 road_4_2_0 road_5_2_3 road_5_1_3" />
		</vehicle>
		<vehicle depart="170" id="105">
			<route edges="road_2_8_3 road_2_7_3 road_2_6_3 road_2_5_3 road_2_4_3 road_2_3_3 road_2_2_3 road_2_1_2 road_1_1_3" />
		</vehicle>
		<vehicle depart="171" id="403">
			<route edges="road_3_0_1 road_3_1_2 road_2_1_2 road_1_1_1 road_1_2_1 road_1_3_1 road_1_4_1 road_1_5_1 road_1_6_1 road_1_7_1" />
		</vehicle>
		<vehicle depart="172" id="116">
			<route edges="road_3_8_3 road_3_7_3 road_3_6_3 road_3_5_3 road_3_4_3 road_3_3_3 road_3_2_3 road_3_1_3" />
		</vehicle>
		<vehicle depart="172" id="404">
			<route edges="road_1_0_1 road_1_1_1 road_1_2_0 road_2_2_0 road_3_2_0 road_4_2_0 road_5_2_0 road_6_2_0 road_7_2_1 road_7_3_1 road_7_4_1 road_7_5_1 road_7_6_1 road_7_7_1" />
		</vehicle>
		<vehicle depart="172" id="405">
			<route edges="road_5_0_1 road_5_1_2 road_4_1_2 road_3_1_2 road_2_1_2 road_1_1_3" />
		</vehicle>
		<vehicle depart="173" id="410">
			<route edges="road_1_0_1 road_1_1_1 road_1_2_1 road_1_3_1 road_1_4_1 road_1_5_1 road_1_6_1 road_1_7_1" />
		</vehicle>
		<vehicle depart="173" id="412">
			<route edges="road_2_0_1 road_2_1_2 road_1_1_3" />
		</vehicle>
		<vehicle depart="175" id="237">
			<route edges="road_2_8_3 road_2_7_3 road_2_6_3 road_2_5_3 road_2_4_3 road_2_3_3 road_2_2_0 road_3_2_0 road_4_2_0 road_5_2_3 road_5_1_3" />
		</vehicle>
		<vehicle depart="176" id="416">
			<route edges="road_1_0_1 road_1_1_1 road_1_2_1 road_1_3_2" />
		</vehicle>
		<vehicle depart="177" id="240">
			<route edges="road_3_8_3 road_3_7_3 road_3_6_3 road_3_5_3 road_3_4_3 road_3_3_3 road_3_2_3 road_3_1_2 road_2_1_2 road_1_1_3" />
		</vehicle>
		<vehicle depart="177" id="422">
			<route edges="road_2_0_1 road_2_1_2 road_1_1_3" />
		</vehicle>
		<vehicle depart="178" id="426">
			<route edges="road_3_0_1 road_3_1_2 road_2_1_2 road_1_1_1 road_1_2_1 road_1_3_1 road_1_4_1 road_1_5_1 road_1_6_1 road_1_7_1" />
		</vehicle>
		<vehicle depart="179" id="430">
			<route edges="road_1_0_1 road_1_1_1 road_1_2_1 road_1_3_1 road_1_4_1 road_1_5_1 road_1_6_1 road_1_7_1" />
		</vehicle>
		<vehicle depart="180" id="251">
			<route edges="road_3_8_3 road_3_7_3 road_3_6_3 road_3_5_3 road_3_4_3 road_3_3_3 road_3_2_3 road_3_1_2 road_2_1_2 road_1_1_3" />
		</vehicle>
		<vehicle depart="180" id="434">
			<route edges="road_8_2_2 road_7_2_1 road_7_3_1 road_7_4_1 road_7_5_2 road_6_5_2 road_5_5_2 road_4_5_2 road_3_5_2 road_2_5_2 road_1_5_1 road_1_6_1 road_1_7_1" />
		</vehicle>
		<vehicle depart="180" id="435">
			<route edges="road_8_6_2 road_7_6_3 road_7_5_2 road_6_5_2 road_5_5_2 road_4_5_2 road_3_5_3 road_3_4_3 road_3_3_3 road_3_2_3 road_3_1_2 road_2_1_2 road_1_1_3" />
		</vehicle>
		<vehicle depart="180" id="436">
			<route edges="road_8_7_2 road_7_7_2 road_6_7_2 road_5_7_3 road_5_6_3 road_5_5_2 road_4_5_2 road_3_5_3 road_3_4_3 road_3_3_3 road_3_2_3 road_3_1_2 road_2_1_3" />
		</vehicle>
		<vehicle depart="180" id="449">
			<route edges="road_1_0_1 road_1_1_1 road_1_2_0 road_2_2_0 road_3_2_0 road_4_2_0 road_5_2_0 road_6_2_0 road_7_2_3 road_7_1_3" />
		</vehicle>
		<vehicle depart="180" id="450">
			<route edges="road_3_0_1 road_3_1_2 road_2_1_1 road_2_2_0 road_3_2_0 road_4_2_0 road_5_2_0 road_6_2_0 road_7_2_1 road_7_3_1 road_7_4_1 road_7_5_1 road_7_6_1 road_7_7_1" />
		</vehicle>
		<vehicle depart="180" id="451">
			<route edges="road_5_0_1 road_5_1_2 road_4_1_2 road_3_1_2 road_2_1_3" />
		</vehicle>
		<vehicle depart="180" id="453">
			<route edges="road_0_2_0 road_1_2_1 road_1_3_1 road_1_4_1 road_1_5_1 road_1_6_1 road_1_7_1" />
		</vehicle>